66522933
  -OEChem-11262517112D

 24 24  0     0  0  0  0  0  0999 V2000
    2.0484    0.0000    0.0000 I   0  5  0  0  0  0  0  0  0  0  0  0
    3.1629    4.1599    0.0000 N   0  3  0  0  0  0  0  0  0  0  0  0
    1.4030    7.1946    0.0000 N   0  0  0  0  0  0  0  0  0  0  0  0
    2.2690    4.6946    0.0000 C   0  0  0  0  0  0  0  0  0  0  0  0
    2.2690    5.6946    0.0000 C   0  0  0  0  0  0  0  0  0  0  0  0
    1.4030    6.1946    0.0000 C   0  0  0  0  0  0  0  0  0  0  0  0
    1.4030    4.1946    0.0000 C   0  0  0  0  0  0  0  0  0  0  0  0
    3.1629    6.2292    0.0000 C   0  0  0  0  0  0  0  0  0  0  0  0
    4.0690    4.6738    0.0000 C   0  0  0  0  0  0  0  0  0  0  0  0
    4.0690    5.7154    0.0000 C   0  0  0  0  0  0  0  0  0  0  0  0
    0.5369    5.6946    0.0000 C   0  0  0  0  0  0  0  0  0  0  0  0
    3.1514    3.1600    0.0000 C   0  0  0  0  0  0  0  0  0  0  0  0
    0.5369    4.6946    0.0000 C   0  0  0  0  0  0  0  0  0  0  0  0
    1.4030    3.5746    0.0000 H   0  0  0  0  0  0  0  0  0  0  0  0
    3.1558    6.8492    0.0000 H   0  0  0  0  0  0  0  0  0  0  0  0
    4.6047    4.3617    0.0000 H   0  0  0  0  0  0  0  0  0  0  0  0
    4.6047    6.0275    0.0000 H   0  0  0  0  0  0  0  0  0  0  0  0
    0.0000    6.0046    0.0000 H   0  0  0  0  0  0  0  0  0  0  0  0
    2.5314    3.1672    0.0000 H   0  0  0  0  0  0  0  0  0  0  0  0
    3.1442    2.5400    0.0000 H   0  0  0  0  0  0  0  0  0  0  0  0
    3.7713    3.1528    0.0000 H   0  0  0  0  0  0  0  0  0  0  0  0
    0.0000    4.3846    0.0000 H   0  0  0  0  0  0  0  0  0  0  0  0
    0.8660    7.5046    0.0000 H   0  0  0  0  0  0  0  0  0  0  0  0
    1.9399    7.5046    0.0000 H   0  0  0  0  0  0  0  0  0  0  0  0
  2  4  1  0  0  0  0
  2  9  2  0  0  0  0
  2 12  1  0  0  0  0
  3  6  1  0  0  0  0
  3 23  1  0  0  0  0
  3 24  1  0  0  0  0
  4  5  1  0  0  0  0
  4  7  2  0  0  0  0
  5  6  2  0  0  0  0
  5  8  1  0  0  0  0
  6 11  1  0  0  0  0
  7 13  1  0  0  0  0
  7 14  1  0  0  0  0
  8 10  2  0  0  0  0
  8 15  1  0  0  0  0
  9 10  1  0  0  0  0
  9 16  1  0  0  0  0
 10 17  1  0  0  0  0
 11 13  2  0  0  0  0
 11 18  1  0  0  0  0
 12 19  1  0  0  0  0
 12 20  1  0  0  0  0
 12 21  1  0  0  0  0
 13 22  1  0  0  0  0
M  CHG  2   1  -1   2   1
M  END
> <PUBCHEM_COMPOUND_CID>
66522933

> <PUBCHEM_COMPOUND_CANONICALIZED>
1

> <PUBCHEM_CACTVS_COMPLEXITY>
158

> <PUBCHEM_CACTVS_HBOND_ACCEPTOR>
2

> <PUBCHEM_CACTVS_HBOND_DONOR>
1

> <PUBCHEM_CACTVS_ROTATABLE_BOND>
0

> <PUBCHEM_CACTVS_SUBSKEYS>
AAADccBzAAAAAgAAAAAAAAAAAAAAAAAAAAA8QAAAAAAAAACx8AAAHAAQAAAADAjBHgQ+wPNMEACgAzRnRACCgCAxAiAI2CA4ZJgIIOLA0dGEJAhgkADIyAcQgIAOAAAAAAQCAAAAAAAACAQAAAAAAAAAAA==

> <PUBCHEM_IUPAC_OPENEYE_NAME>
1-methylquinolin-1-ium-5-amine iodide

> <PUBCHEM_IUPAC_CAS_NAME>
1-methyl-5-quinolin-1-iumamine iodide

> <PUBCHEM_IUPAC_NAME_MARKUP>
1-methylquinolin-1-ium-5-amine iodide

> <PUBCHEM_IUPAC_NAME>
1-methylquinolin-1-ium-5-amine iodide

> <PUBCHEM_IUPAC_SYSTEMATIC_NAME>
1-methylquinolin-1-ium-5-amine iodide

> <PUBCHEM_IUPAC_TRADITIONAL_NAME>
(1-methylquinolin-1-ium-5-yl)amine iodide

> <PUBCHEM_IUPAC_INCHI>
InChI=1S/C10H10N2.HI/c1-12-7-3-4-8-9(11)5-2-6-10(8)12;/h2-7,11H,1H3;1H

> <PUBCHEM_IUPAC_INCHIKEY>
JPEZFBFIRRAFNR-UHFFFAOYSA-N

> <PUBCHEM_EXACT_MASS>
285.99670

> <PUBCHEM_MOLECULAR_FORMULA>
C10H11IN2

> <PUBCHEM_MOLECULAR_WEIGHT>
286.11

> <PUBCHEM_SMILES>
C[N+]1=CC=CC2=C(C=CC=C21)N.[I-]

> <PUBCHEM_CONNECTIVITY_SMILES>
C[N+]1=CC=CC2=C(C=CC=C21)N.[I-]

> <PUBCHEM_CACTVS_TPSA>
29.9

> <PUBCHEM_MONOISOTOPIC_WEIGHT>
285.99670

> <PUBCHEM_TOTAL_CHARGE>
0

> <PUBCHEM_HEAVY_ATOM_COUNT>
13

> <PUBCHEM_ATOM_DEF_STEREO_COUNT>
0

> <PUBCHEM_ATOM_UDEF_STEREO_COUNT>
0

> <PUBCHEM_BOND_DEF_STEREO_COUNT>
0

> <PUBCHEM_BOND_UDEF_STEREO_COUNT>
0

> <PUBCHEM_ISOTOPIC_ATOM_COUNT>
0

> <PUBCHEM_COMPONENT_COUNT>
2

> <PUBCHEM_CACTVS_TAUTO_COUNT>
-1

> <PUBCHEM_COORDINATE_TYPE>
1
5
255

> <PUBCHEM_BONDANNOTATIONS>
11  13  8
2  4  8
2  9  8
4  5  8
4  7  8
5  6  8
5  8  8
6  11  8
7  13  8
8  10  8
9  10  8

$$$$
