71300630
  -OEChem-11132518582D

249251  0     1  0  0  0  0  0999 V2000
   10.7942   -5.8450    0.0000 S   0  0  0  0  0  0  0  0  0  0  0  0
   10.7942   -6.8450    0.0000 S   0  0  0  0  0  0  0  0  0  0  0  0
    9.0622    2.1550    0.0000 O   0  0  0  0  0  0  0  0  0  0  0  0
    5.5981    3.1550    0.0000 O   0  0  0  0  0  0  0  0  0  0  0  0
    8.1962   -1.3450    0.0000 O   0  0  0  0  0  0  0  0  0  0  0  0
    6.4641    6.6550    0.0000 O   0  0  0  0  0  0  0  0  0  0  0  0
   11.6603   -2.3450    0.0000 O   0  0  0  0  0  0  0  0  0  0  0  0
    6.4641    7.6550    0.0000 O   0  0  0  0  0  0  0  0  0  0  0  0
   12.5263   -2.8450    0.0000 O   0  0  0  0  0  0  0  0  0  0  0  0
    7.3301   -3.8450    0.0000 O   0  0  0  0  0  0  0  0  0  0  0  0
   15.9904   -3.8450    0.0000 O   0  0  0  0  0  0  0  0  0  0  0  0
   18.5885   -8.3450    0.0000 O   0  0  0  0  0  0  0  0  0  0  0  0
   15.1244   -7.3450    0.0000 O   0  0  0  0  0  0  0  0  0  0  0  0
   17.7224   -5.8450    0.0000 O   0  0  0  0  0  0  0  0  0  0  0  0
   15.1244  -10.3450    0.0000 O   0  0  0  0  0  0  0  0  0  0  0  0
    6.4641   13.6550    0.0000 O   0  0  0  0  0  0  0  0  0  0  0  0
   18.5885  -13.3450    0.0000 O   0  0  0  0  0  0  0  0  0  0  0  0
   16.8564  -13.3450    0.0000 O   0  0  0  0  0  0  0  0  0  0  0  0
   14.2583   -9.8450    0.0000 O   0  0  0  0  0  0  0  0  0  0  0  0
    9.0622   -9.8450    0.0000 O   0  0  0  0  0  0  0  0  0  0  0  0
   11.6603   -7.3450    0.0000 O   0  0  0  0  0  0  0  0  0  0  0  0
   11.6603  -10.3450    0.0000 O   0  0  0  0  0  0  0  0  0  0  0  0
    6.4641   -7.3450    0.0000 O   0  0  0  0  0  0  0  0  0  0  0  0
    2.8660   -8.3450    0.0000 O   0  0  0  0  0  0  0  0  0  0  0  0
    3.7321   -9.8450    0.0000 O   0  0  0  0  0  0  0  0  0  0  0  0
    7.3301    3.1550    0.0000 N   0  0  0  0  0  0  0  0  0  0  0  0
    8.1962    0.6550    0.0000 N   0  0  0  0  0  0  0  0  0  0  0  0
    5.5981    5.1550    0.0000 N   0  0  0  0  0  0  0  0  0  0  0  0
    9.9282   -1.3450    0.0000 N   0  0  0  0  0  0  0  0  0  0  0  0
    4.7321    7.6550    0.0000 N   0  0  0  0  0  0  0  0  0  0  0  0
   10.7942   -3.8450    0.0000 N   0  0  0  0  0  0  0  0  0  0  0  0
    8.1962    7.6550    0.0000 N   0  0  0  0  0  0  0  0  0  0  0  0
   13.3923   -4.3450    0.0000 N   0  0  0  0  0  0  0  0  0  0  0  0
    4.7321    9.6550    0.0000 N   0  0  0  0  0  0  0  0  0  0  0  0
   16.8564   -7.3450    0.0000 N   0  0  0  0  0  0  0  0  0  0  0  0
   15.1244   -5.3450    0.0000 N   0  0  0  0  0  0  0  0  0  0  0  0
   17.7224   -9.8450    0.0000 N   0  0  0  0  0  0  0  0  0  0  0  0
    6.4641   -2.3450    0.0000 N   0  0  0  0  0  0  0  0  0  0  0  0
    9.0622    9.1550    0.0000 N   0  0  0  0  0  0  0  0  0  0  0  0
   15.9904   -0.8450    0.0000 N   0  0  0  0  0  0  0  0  0  0  0  0
    9.9282    7.6550    0.0000 N   0  0  0  0  0  0  0  0  0  0  0  0
   15.9904   -8.8450    0.0000 N   0  0  0  0  0  0  0  0  0  0  0  0
   10.7942   -8.8450    0.0000 N   0  0  0  0  0  0  0  0  0  0  0  0
   13.3923   -8.3450    0.0000 N   0  0  0  0  0  0  0  0  0  0  0  0
   16.8564    0.6550    0.0000 N   0  0  0  0  0  0  0  0  0  0  0  0
    8.1962   -8.3450    0.0000 N   0  0  0  0  0  0  0  0  0  0  0  0
   15.1244    0.6550    0.0000 N   0  0  0  0  0  0  0  0  0  0  0  0
    5.4641   -8.8450    0.0000 N   0  0  0  0  0  0  0  0  0  0  0  0
    7.3301    2.1550    0.0000 C   0  0  1  0  0  0  0  0  0  0  0  0
    6.4641    1.6550    0.0000 C   0  0  2  0  0  0  0  0  0  0  0  0
    9.0622    0.1550    0.0000 C   0  0  1  0  0  0  0  0  0  0  0  0
    5.5981    2.1550    0.0000 C   0  0  0  0  0  0  0  0  0  0  0  0
    6.4641    4.6550    0.0000 C   0  0  2  0  0  0  0  0  0  0  0  0
    8.1962    1.6550    0.0000 C   0  0  0  0  0  0  0  0  0  0  0  0
    9.9282    0.6550    0.0000 C   0  0  0  0  0  0  0  0  0  0  0  0
    6.4641    0.6550    0.0000 C   0  0  0  0  0  0  0  0  0  0  0  0
    6.4641    3.6550    0.0000 C   0  0  0  0  0  0  0  0  0  0  0  0
    7.3301    5.1550    0.0000 C   0  0  0  0  0  0  0  0  0  0  0  0
    4.7321    6.6550    0.0000 C   0  0  1  0  0  0  0  0  0  0  0  0
    9.0622   -0.8450    0.0000 C   0  0  0  0  0  0  0  0  0  0  0  0
    3.8660    6.1550    0.0000 C   0  0  0  0  0  0  0  0  0  0  0  0
    4.7321    1.6550    0.0000 C   0  0  0  0  0  0  0  0  0  0  0  0
    7.3301    6.1550    0.0000 C   0  0  0  0  0  0  0  0  0  0  0  0
    3.0000    6.6550    0.0000 C   0  0  0  0  0  0  0  0  0  0  0  0
    5.5981    6.1550    0.0000 C   0  0  0  0  0  0  0  0  0  0  0  0
    9.9282    1.6550    0.0000 C   0  0  0  0  0  0  0  0  0  0  0  0
   10.7942    0.1550    0.0000 C   0  0  0  0  0  0  0  0  0  0  0  0
    9.9282   -2.3450    0.0000 C   0  0  1  0  0  0  0  0  0  0  0  0
    8.1962    6.6550    0.0000 C   0  0  0  0  0  0  0  0  0  0  0  0
    9.0622   -2.8450    0.0000 C   0  0  0  0  0  0  0  0  0  0  0  0
    2.1340    6.1550    0.0000 C   0  0  0  0  0  0  0  0  0  0  0  0
    3.0000    7.6550    0.0000 C   0  0  0  0  0  0  0  0  0  0  0  0
   10.7942   -2.8450    0.0000 C   0  0  0  0  0  0  0  0  0  0  0  0
    5.5981    8.1550    0.0000 C   0  0  0  0  0  0  0  0  0  0  0  0
    8.1962   -2.3450    0.0000 C   0  0  0  0  0  0  0  0  0  0  0  0
    5.5981    9.1550    0.0000 C   0  0  2  0  0  0  0  0  0  0  0  0
   11.6603   -4.3450    0.0000 C   0  0  2  0  0  0  0  0  0  0  0  0
   14.2583   -3.8450    0.0000 C   0  0  1  0  0  0  0  0  0  0  0  0
    6.4641    9.6550    0.0000 C   0  0  0  0  0  0  0  0  0  0  0  0
   12.5263   -3.8450    0.0000 C   0  0  0  0  0  0  0  0  0  0  0  0
   14.2583   -2.8450    0.0000 C   0  0  0  0  0  0  0  0  0  0  0  0
   16.8564   -8.3450    0.0000 C   0  0  1  0  0  0  0  0  0  0  0  0
   11.6603   -5.3450    0.0000 C   0  0  0  0  0  0  0  0  0  0  0  0
   16.5144   -9.2847    0.0000 C   0  0  0  0  0  0  0  0  0  0  0  0
    7.3301   -2.8450    0.0000 C   0  0  0  0  0  0  0  0  0  0  0  0
   15.1244   -2.3450    0.0000 C   0  0  0  0  0  0  0  0  0  0  0  0
   15.1244   -4.3450    0.0000 C   0  0  0  0  0  0  0  0  0  0  0  0
   15.9904   -5.8450    0.0000 C   0  0  2  0  0  0  0  0  0  0  0  0
    9.0622    8.1550    0.0000 C   0  0  0  0  0  0  0  0  0  0  0  0
    6.4641   10.6550    0.0000 C   0  0  0  0  0  0  0  0  0  0  0  0
   17.7224   -8.8450    0.0000 C   0  0  0  0  0  0  0  0  0  0  0  0
   15.9904   -6.8450    0.0000 C   0  0  0  0  0  0  0  0  0  0  0  0
   17.3954  -10.0239    0.0000 C   0  0  0  0  0  0  0  0  0  0  0  0
   15.5295   -9.4583    0.0000 C   0  0  0  0  0  0  0  0  0  0  0  0
   16.8564  -10.3450    0.0000 C   0  0  1  0  0  0  0  0  0  0  0  0
   15.1244   -1.3450    0.0000 C   0  0  0  0  0  0  0  0  0  0  0  0
   16.8564   -5.3450    0.0000 C   0  0  0  0  0  0  0  0  0  0  0  0
   16.8564  -11.3450    0.0000 C   0  0  0  0  0  0  0  0  0  0  0  0
    7.3301   11.1550    0.0000 C   0  0  0  0  0  0  0  0  0  0  0  0
    5.5981   11.1550    0.0000 C   0  0  0  0  0  0  0  0  0  0  0  0
   15.9904   -9.8450    0.0000 C   0  0  0  0  0  0  0  0  0  0  0  0
   17.7224  -11.8450    0.0000 C   0  0  0  0  0  0  0  0  0  0  0  0
    7.3301   12.1550    0.0000 C   0  0  0  0  0  0  0  0  0  0  0  0
    5.5981   12.1550    0.0000 C   0  0  0  0  0  0  0  0  0  0  0  0
    6.4641   12.6550    0.0000 C   0  0  0  0  0  0  0  0  0  0  0  0
    9.9282   -7.3450    0.0000 C   0  0  0  0  0  0  0  0  0  0  0  0
    9.9282   -8.3450    0.0000 C   0  0  1  0  0  0  0  0  0  0  0  0
   15.1244   -8.3450    0.0000 C   0  0  0  0  0  0  0  0  0  0  0  0
   15.9904    0.1550    0.0000 C   0  0  0  0  0  0  0  0  0  0  0  0
   17.7224  -12.8450    0.0000 C   0  0  0  0  0  0  0  0  0  0  0  0
   12.5263   -8.8450    0.0000 C   0  0  2  0  0  0  0  0  0  0  0  0
    9.0622   -8.8450    0.0000 C   0  0  0  0  0  0  0  0  0  0  0  0
   14.2583   -8.8450    0.0000 C   0  0  0  0  0  0  0  0  0  0  0  0
   11.6603   -8.3450    0.0000 C   0  0  0  0  0  0  0  0  0  0  0  0
   12.5263   -9.8450    0.0000 C   0  0  0  0  0  0  0  0  0  0  0  0
    7.3301   -8.8450    0.0000 C   0  0  0  0  0  0  0  0  0  0  0  0
    6.4641   -8.3450    0.0000 C   0  0  0  0  0  0  0  0  0  0  0  0
    4.5981   -8.3450    0.0000 C   0  0  1  0  0  0  0  0  0  0  0  0
    4.5981   -7.3450    0.0000 C   0  0  0  0  0  0  0  0  0  0  0  0
    3.7321   -6.8450    0.0000 C   0  0  0  0  0  0  0  0  0  0  0  0
    3.7321   -8.8450    0.0000 C   0  0  0  0  0  0  0  0  0  0  0  0
    2.8660   -7.3450    0.0000 C   0  0  0  0  0  0  0  0  0  0  0  0
    3.7321   -5.8450    0.0000 C   0  0  0  0  0  0  0  0  0  0  0  0
    2.0000   -6.8450    0.0000 C   0  0  0  0  0  0  0  0  0  0  0  0
    2.8660   -5.3450    0.0000 C   0  0  0  0  0  0  0  0  0  0  0  0
    2.0000   -5.8450    0.0000 C   0  0  0  0  0  0  0  0  0  0  0  0
    7.8671    2.4650    0.0000 H   0  0  0  0  0  0  0  0  0  0  0  0
    5.9272    1.3450    0.0000 H   0  0  0  0  0  0  0  0  0  0  0  0
    9.0622    0.7750    0.0000 H   0  0  0  0  0  0  0  0  0  0  0  0
    5.9966    2.6300    0.0000 H   0  0  0  0  0  0  0  0  0  0  0  0
    5.1996    2.6300    0.0000 H   0  0  0  0  0  0  0  0  0  0  0  0
    5.9272    4.3450    0.0000 H   0  0  0  0  0  0  0  0  0  0  0  0
    7.8671    3.4650    0.0000 H   0  0  0  0  0  0  0  0  0  0  0  0
    9.3913    0.9650    0.0000 H   0  0  0  0  0  0  0  0  0  0  0  0
    5.8441    0.6550    0.0000 H   0  0  0  0  0  0  0  0  0  0  0  0
    6.4641    0.0350    0.0000 H   0  0  0  0  0  0  0  0  0  0  0  0
    7.0841    0.6550    0.0000 H   0  0  0  0  0  0  0  0  0  0  0  0
    7.6592    0.3450    0.0000 H   0  0  0  0  0  0  0  0  0  0  0  0
    7.5422    4.5724    0.0000 H   0  0  0  0  0  0  0  0  0  0  0  0
    7.9407    5.2627    0.0000 H   0  0  0  0  0  0  0  0  0  0  0  0
    5.2690    6.9650    0.0000 H   0  0  0  0  0  0  0  0  0  0  0  0
    5.0611    4.8450    0.0000 H   0  0  0  0  0  0  0  0  0  0  0  0
    3.4675    5.6801    0.0000 H   0  0  0  0  0  0  0  0  0  0  0  0
    4.2646    5.6801    0.0000 H   0  0  0  0  0  0  0  0  0  0  0  0
    4.4221    2.1919    0.0000 H   0  0  0  0  0  0  0  0  0  0  0  0
    4.1951    1.3450    0.0000 H   0  0  0  0  0  0  0  0  0  0  0  0
    5.0421    1.1181    0.0000 H   0  0  0  0  0  0  0  0  0  0  0  0
    7.1181    6.7376    0.0000 H   0  0  0  0  0  0  0  0  0  0  0  0
    6.7196    6.0473    0.0000 H   0  0  0  0  0  0  0  0  0  0  0  0
    3.0000    6.0350    0.0000 H   0  0  0  0  0  0  0  0  0  0  0  0
   10.5482    1.6550    0.0000 H   0  0  0  0  0  0  0  0  0  0  0  0
    9.9282    2.2750    0.0000 H   0  0  0  0  0  0  0  0  0  0  0  0
    9.3082    1.6550    0.0000 H   0  0  0  0  0  0  0  0  0  0  0  0
   10.4842   -0.3819    0.0000 H   0  0  0  0  0  0  0  0  0  0  0  0
   11.3312   -0.1550    0.0000 H   0  0  0  0  0  0  0  0  0  0  0  0
   11.1042    0.6919    0.0000 H   0  0  0  0  0  0  0  0  0  0  0  0
    9.3913   -2.0350    0.0000 H   0  0  0  0  0  0  0  0  0  0  0  0
   10.4651   -1.0350    0.0000 H   0  0  0  0  0  0  0  0  0  0  0  0
    8.4082    6.0724    0.0000 H   0  0  0  0  0  0  0  0  0  0  0  0
    8.8067    6.7627    0.0000 H   0  0  0  0  0  0  0  0  0  0  0  0
    4.1951    7.9650    0.0000 H   0  0  0  0  0  0  0  0  0  0  0  0
    8.6637   -3.3200    0.0000 H   0  0  0  0  0  0  0  0  0  0  0  0
    9.4607   -3.3200    0.0000 H   0  0  0  0  0  0  0  0  0  0  0  0
    1.8240    6.6919    0.0000 H   0  0  0  0  0  0  0  0  0  0  0  0
    1.5970    5.8450    0.0000 H   0  0  0  0  0  0  0  0  0  0  0  0
    2.4440    5.6181    0.0000 H   0  0  0  0  0  0  0  0  0  0  0  0
    3.6200    7.6550    0.0000 H   0  0  0  0  0  0  0  0  0  0  0  0
    3.0000    8.2750    0.0000 H   0  0  0  0  0  0  0  0  0  0  0  0
    2.3800    7.6550    0.0000 H   0  0  0  0  0  0  0  0  0  0  0  0
    8.5947   -1.8701    0.0000 H   0  0  0  0  0  0  0  0  0  0  0  0
    7.7976   -1.8701    0.0000 H   0  0  0  0  0  0  0  0  0  0  0  0
    5.0611    8.8450    0.0000 H   0  0  0  0  0  0  0  0  0  0  0  0
   11.6603   -3.7250    0.0000 H   0  0  0  0  0  0  0  0  0  0  0  0
   10.2573   -4.1550    0.0000 H   0  0  0  0  0  0  0  0  0  0  0  0
    7.6592    7.9650    0.0000 H   0  0  0  0  0  0  0  0  0  0  0  0
   13.7214   -3.5350    0.0000 H   0  0  0  0  0  0  0  0  0  0  0  0
    6.6762    9.0724    0.0000 H   0  0  0  0  0  0  0  0  0  0  0  0
    7.0747    9.7627    0.0000 H   0  0  0  0  0  0  0  0  0  0  0  0
   14.0463   -2.2624    0.0000 H   0  0  0  0  0  0  0  0  0  0  0  0
   13.6477   -2.9527    0.0000 H   0  0  0  0  0  0  0  0  0  0  0  0
   16.2458   -8.2373    0.0000 H   0  0  0  0  0  0  0  0  0  0  0  0
   11.8723   -5.9276    0.0000 H   0  0  0  0  0  0  0  0  0  0  0  0
   12.2708   -5.2373    0.0000 H   0  0  0  0  0  0  0  0  0  0  0  0
   16.3539   -9.8836    0.0000 H   0  0  0  0  0  0  0  0  0  0  0  0
   13.3923   -4.9650    0.0000 H   0  0  0  0  0  0  0  0  0  0  0  0
   15.3364   -2.9276    0.0000 H   0  0  0  0  0  0  0  0  0  0  0  0
   15.7349   -2.2373    0.0000 H   0  0  0  0  0  0  0  0  0  0  0  0
   15.9904   -5.2250    0.0000 H   0  0  0  0  0  0  0  0  0  0  0  0
    4.7321   10.2750    0.0000 H   0  0  0  0  0  0  0  0  0  0  0  0
    4.1951    9.3450    0.0000 H   0  0  0  0  0  0  0  0  0  0  0  0
   17.3933   -7.0350    0.0000 H   0  0  0  0  0  0  0  0  0  0  0  0
   14.5874   -5.6550    0.0000 H   0  0  0  0  0  0  0  0  0  0  0  0
   16.9969  -10.4988    0.0000 H   0  0  0  0  0  0  0  0  0  0  0  0
   17.8703  -10.4224    0.0000 H   0  0  0  0  0  0  0  0  0  0  0  0
   17.7939   -9.5489    0.0000 H   0  0  0  0  0  0  0  0  0  0  0  0
   15.4219   -8.8477    0.0000 H   0  0  0  0  0  0  0  0  0  0  0  0
   14.9189   -9.5659    0.0000 H   0  0  0  0  0  0  0  0  0  0  0  0
   15.6371  -10.0689    0.0000 H   0  0  0  0  0  0  0  0  0  0  0  0
   17.3933  -10.6550    0.0000 H   0  0  0  0  0  0  0  0  0  0  0  0
   14.9123   -0.7624    0.0000 H   0  0  0  0  0  0  0  0  0  0  0  0
   14.5138   -1.4527    0.0000 H   0  0  0  0  0  0  0  0  0  0  0  0
   18.2594  -10.1550    0.0000 H   0  0  0  0  0  0  0  0  0  0  0  0
   17.2549   -4.8701    0.0000 H   0  0  0  0  0  0  0  0  0  0  0  0
   16.4579   -4.8701    0.0000 H   0  0  0  0  0  0  0  0  0  0  0  0
   16.2458  -11.2373    0.0000 H   0  0  0  0  0  0  0  0  0  0  0  0
   16.6444  -11.9276    0.0000 H   0  0  0  0  0  0  0  0  0  0  0  0
    7.8671   10.8450    0.0000 H   0  0  0  0  0  0  0  0  0  0  0  0
    5.0611   10.8450    0.0000 H   0  0  0  0  0  0  0  0  0  0  0  0
    5.9272   -2.6550    0.0000 H   0  0  0  0  0  0  0  0  0  0  0  0
    6.4641   -1.7250    0.0000 H   0  0  0  0  0  0  0  0  0  0  0  0
    9.5991    9.4650    0.0000 H   0  0  0  0  0  0  0  0  0  0  0  0
    8.5252    9.4650    0.0000 H   0  0  0  0  0  0  0  0  0  0  0  0
   18.3330  -11.9527    0.0000 H   0  0  0  0  0  0  0  0  0  0  0  0
   17.9345  -11.2624    0.0000 H   0  0  0  0  0  0  0  0  0  0  0  0
   16.5273   -1.1550    0.0000 H   0  0  0  0  0  0  0  0  0  0  0  0
   10.4651    7.9650    0.0000 H   0  0  0  0  0  0  0  0  0  0  0  0
    7.8671   12.4650    0.0000 H   0  0  0  0  0  0  0  0  0  0  0  0
    5.0611   12.4650    0.0000 H   0  0  0  0  0  0  0  0  0  0  0  0
    9.7162   -6.7624    0.0000 H   0  0  0  0  0  0  0  0  0  0  0  0
    9.3176   -7.4527    0.0000 H   0  0  0  0  0  0  0  0  0  0  0  0
   15.9904   -8.2250    0.0000 H   0  0  0  0  0  0  0  0  0  0  0  0
    9.9282   -8.9650    0.0000 H   0  0  0  0  0  0  0  0  0  0  0  0
   18.2594   -5.5350    0.0000 H   0  0  0  0  0  0  0  0  0  0  0  0
   15.5229   -7.8701    0.0000 H   0  0  0  0  0  0  0  0  0  0  0  0
   14.7258   -7.8701    0.0000 H   0  0  0  0  0  0  0  0  0  0  0  0
   10.7942   -9.4650    0.0000 H   0  0  0  0  0  0  0  0  0  0  0  0
   13.0632   -9.1550    0.0000 H   0  0  0  0  0  0  0  0  0  0  0  0
   13.3923   -7.7250    0.0000 H   0  0  0  0  0  0  0  0  0  0  0  0
    7.0010   13.9650    0.0000 H   0  0  0  0  0  0  0  0  0  0  0  0
   12.7383  -10.4276    0.0000 H   0  0  0  0  0  0  0  0  0  0  0  0
   13.1369   -9.7373    0.0000 H   0  0  0  0  0  0  0  0  0  0  0  0
   16.8564    1.2750    0.0000 H   0  0  0  0  0  0  0  0  0  0  0  0
   17.3933    0.3450    0.0000 H   0  0  0  0  0  0  0  0  0  0  0  0
    8.1962   -7.7250    0.0000 H   0  0  0  0  0  0  0  0  0  0  0  0
   15.1244    1.2750    0.0000 H   0  0  0  0  0  0  0  0  0  0  0  0
   18.5885  -13.9650    0.0000 H   0  0  0  0  0  0  0  0  0  0  0  0
    6.9316   -9.3200    0.0000 H   0  0  0  0  0  0  0  0  0  0  0  0
    7.7287   -9.3200    0.0000 H   0  0  0  0  0  0  0  0  0  0  0  0
   11.6603  -10.9650    0.0000 H   0  0  0  0  0  0  0  0  0  0  0  0
    5.1350   -8.0350    0.0000 H   0  0  0  0  0  0  0  0  0  0  0  0
    6.0010   -9.1550    0.0000 H   0  0  0  0  0  0  0  0  0  0  0  0
    5.2087   -7.4527    0.0000 H   0  0  0  0  0  0  0  0  0  0  0  0
    4.8101   -6.7624    0.0000 H   0  0  0  0  0  0  0  0  0  0  0  0
    2.8660   -7.9650    0.0000 H   0  0  0  0  0  0  0  0  0  0  0  0
    4.2690   -5.5350    0.0000 H   0  0  0  0  0  0  0  0  0  0  0  0
    1.4631   -7.1550    0.0000 H   0  0  0  0  0  0  0  0  0  0  0  0
    2.8660   -4.7250    0.0000 H   0  0  0  0  0  0  0  0  0  0  0  0
    2.3291   -8.6550    0.0000 H   0  0  0  0  0  0  0  0  0  0  0  0
    1.4631   -5.5350    0.0000 H   0  0  0  0  0  0  0  0  0  0  0  0
  1  2  1  0  0  0  0
  1 83  1  0  0  0  0
  2106  1  0  0  0  0
  3 54  2  0  0  0  0
  4 57  2  0  0  0  0
  5 60  2  0  0  0  0
  6 65  2  0  0  0  0
  7 73  2  0  0  0  0
  8 74  2  0  0  0  0
  9 80  2  0  0  0  0
 10 85  2  0  0  0  0
 11 87  2  0  0  0  0
 12 91  2  0  0  0  0
 13 92  2  0  0  0  0
 14 97  1  0  0  0  0
 14223  1  0  0  0  0
 15101  2  0  0  0  0
 16105  1  0  0  0  0
 16229  1  0  0  0  0
 17110  1  0  0  0  0
 17236  1  0  0  0  0
 18110  2  0  0  0  0
 19113  2  0  0  0  0
 20112  2  0  0  0  0
 21114  2  0  0  0  0
 22115  1  0  0  0  0
 22239  1  0  0  0  0
 23117  2  0  0  0  0
 24121  1  0  0  0  0
 24248  1  0  0  0  0
 25121  2  0  0  0  0
 49 26  1  6  0  0  0
 26 57  1  0  0  0  0
 26133  1  0  0  0  0
 51 27  1  1  0  0  0
 27 54  1  0  0  0  0
 27138  1  0  0  0  0
 53 28  1  1  0  0  0
 28 65  1  0  0  0  0
 28142  1  0  0  0  0
 29 60  1  0  0  0  0
 68 29  1  6  0  0  0
 29158  1  0  0  0  0
 59 30  1  6  0  0  0
 30 74  1  0  0  0  0
 30161  1  0  0  0  0
 31 73  1  0  0  0  0
 77 31  1  6  0  0  0
 31174  1  0  0  0  0
 32 69  1  0  0  0  0
 32 89  1  0  0  0  0
 32175  1  0  0  0  0
 33 78  1  0  0  0  0
 33 80  1  0  0  0  0
 33185  1  0  0  0  0
 76 34  1  1  0  0  0
 34189  1  0  0  0  0
 34190  1  0  0  0  0
 35 82  1  0  0  0  0
 35 92  1  0  0  0  0
 35191  1  0  0  0  0
 36 87  1  0  0  0  0
 36 88  1  0  0  0  0
 36192  1  0  0  0  0
 37 91  1  0  0  0  0
 37 95  1  0  0  0  0
 37202  1  0  0  0  0
 38 85  1  0  0  0  0
 38209  1  0  0  0  0
 38210  1  0  0  0  0
 39 89  1  0  0  0  0
 39211  1  0  0  0  0
 39212  1  0  0  0  0
 40 96  1  0  0  0  0
 40109  1  0  0  0  0
 40215  1  0  0  0  0
 41 89  2  0  0  0  0
 41216  1  0  0  0  0
 42101  1  0  0  0  0
 42108  1  0  0  0  0
 42221  1  0  0  0  0
 43107  1  0  0  0  0
 43114  1  0  0  0  0
 43226  1  0  0  0  0
 44111  1  0  0  0  0
 44113  1  0  0  0  0
 44228  1  0  0  0  0
 45109  1  0  0  0  0
 45232  1  0  0  0  0
 45233  1  0  0  0  0
 46112  1  0  0  0  0
 46116  1  0  0  0  0
 46234  1  0  0  0  0
 47109  2  0  0  0  0
 47235  1  0  0  0  0
 48117  1  0  0  0  0
118 48  1  6  0  0  0
 48241  1  0  0  0  0
 49 50  1  0  0  0  0
 49 54  1  0  0  0  0
 49127  1  0  0  0  0
 50 52  1  0  0  0  0
 50 56  1  1  0  0  0
 50128  1  0  0  0  0
 51 55  1  0  0  0  0
 51 60  1  0  0  0  0
 51129  1  0  0  0  0
 52 62  1  0  0  0  0
 52130  1  0  0  0  0
 52131  1  0  0  0  0
 53 57  1  0  0  0  0
 53 58  1  0  0  0  0
 53132  1  0  0  0  0
 55 66  1  0  0  0  0
 55 67  1  0  0  0  0
 55134  1  0  0  0  0
 56135  1  0  0  0  0
 56136  1  0  0  0  0
 56137  1  0  0  0  0
 58 63  1  0  0  0  0
 58139  1  0  0  0  0
 58140  1  0  0  0  0
 59 61  1  0  0  0  0
 59 65  1  0  0  0  0
 59141  1  0  0  0  0
 61 64  1  0  0  0  0
 61143  1  0  0  0  0
 61144  1  0  0  0  0
 62145  1  0  0  0  0
 62146  1  0  0  0  0
 62147  1  0  0  0  0
 63 69  1  0  0  0  0
 63148  1  0  0  0  0
 63149  1  0  0  0  0
 64 71  1  0  0  0  0
 64 72  1  0  0  0  0
 64150  1  0  0  0  0
 66151  1  0  0  0  0
 66152  1  0  0  0  0
 66153  1  0  0  0  0
 67154  1  0  0  0  0
 67155  1  0  0  0  0
 67156  1  0  0  0  0
 68 70  1  0  0  0  0
 68 73  1  0  0  0  0
 68157  1  0  0  0  0
 69159  1  0  0  0  0
 69160  1  0  0  0  0
 70 75  1  0  0  0  0
 70162  1  0  0  0  0
 70163  1  0  0  0  0
 71164  1  0  0  0  0
 71165  1  0  0  0  0
 71166  1  0  0  0  0
 72167  1  0  0  0  0
 72168  1  0  0  0  0
 72169  1  0  0  0  0
 74 76  1  0  0  0  0
 75 85  1  0  0  0  0
 75170  1  0  0  0  0
 75171  1  0  0  0  0
 76 79  1  0  0  0  0
 76172  1  0  0  0  0
 77 80  1  0  0  0  0
 77 83  1  0  0  0  0
 77173  1  0  0  0  0
 78 81  1  1  0  0  0
 78 87  1  0  0  0  0
 78176  1  0  0  0  0
 79 90  1  0  0  0  0
 79177  1  0  0  0  0
 79178  1  0  0  0  0
 81 86  1  0  0  0  0
 81179  1  0  0  0  0
 81180  1  0  0  0  0
 82 84  1  6  0  0  0
 82 91  1  0  0  0  0
 82181  1  0  0  0  0
 83182  1  0  0  0  0
 83183  1  0  0  0  0
 84 93  1  0  0  0  0
 84 94  1  0  0  0  0
 84184  1  0  0  0  0
 86 96  1  0  0  0  0
 86186  1  0  0  0  0
 86187  1  0  0  0  0
 88 92  1  0  0  0  0
 88 97  1  1  0  0  0
 88188  1  0  0  0  0
 90 99  2  0  0  0  0
 90100  1  0  0  0  0
 93193  1  0  0  0  0
 93194  1  0  0  0  0
 93195  1  0  0  0  0
 94196  1  0  0  0  0
 94197  1  0  0  0  0
 94198  1  0  0  0  0
 95 98  1  1  0  0  0
 95101  1  0  0  0  0
 95199  1  0  0  0  0
 96200  1  0  0  0  0
 96201  1  0  0  0  0
 97203  1  0  0  0  0
 97204  1  0  0  0  0
 98102  1  0  0  0  0
 98205  1  0  0  0  0
 98206  1  0  0  0  0
 99103  1  0  0  0  0
 99207  1  0  0  0  0
100104  2  0  0  0  0
100208  1  0  0  0  0
102110  1  0  0  0  0
102213  1  0  0  0  0
102214  1  0  0  0  0
103105  2  0  0  0  0
103217  1  0  0  0  0
104105  1  0  0  0  0
104218  1  0  0  0  0
106107  1  0  0  0  0
106219  1  0  0  0  0
106220  1  0  0  0  0
107112  1  6  0  0  0
107222  1  0  0  0  0
108113  1  0  0  0  0
108224  1  0  0  0  0
108225  1  0  0  0  0
111114  1  0  0  0  0
111115  1  1  0  0  0
111227  1  0  0  0  0
115230  1  0  0  0  0
115231  1  0  0  0  0
116117  1  0  0  0  0
116237  1  0  0  0  0
116238  1  0  0  0  0
118119  1  0  0  0  0
118121  1  0  0  0  0
118240  1  0  0  0  0
119120  1  0  0  0  0
119242  1  0  0  0  0
119243  1  0  0  0  0
120122  2  0  0  0  0
120123  1  0  0  0  0
122124  1  0  0  0  0
122244  1  0  0  0  0
123125  2  0  0  0  0
123245  1  0  0  0  0
124126  2  0  0  0  0
124246  1  0  0  0  0
125126  1  0  0  0  0
125247  1  0  0  0  0
126249  1  0  0  0  0
M  END
> <PUBCHEM_COMPOUND_CID>
71300630

> <PUBCHEM_COMPOUND_CANONICALIZED>
1

> <PUBCHEM_CACTVS_COMPLEXITY>
3710

> <PUBCHEM_CACTVS_HBOND_ACCEPTOR>
28

> <PUBCHEM_CACTVS_HBOND_DONOR>
28

> <PUBCHEM_CACTVS_ROTATABLE_BOND>
45

> <PUBCHEM_CACTVS_SUBSKEYS>
AAADcfB//gBgAAAAAAAAAAAAAAAAAAAAAAAwYAAAAAAAAAABQAAAHgQQCAAADSzl2AazDoLAAgCoAiHSOAACAACgIAAJiIGOCIiKdjaCmTOUcAAm9hOYmAe836KOIAAAAAAAAABAAAAAAAAAAAAAAAAAAA==

> <PUBCHEM_IUPAC_OPENEYE_NAME>
(2S)-2-[[2-[[(4R,7S,13S,16S,19S,22S,25R)-25-[[(2S)-5-amino-2-[[(2S)-2-[[(2S,3S)-2-[[(2S)-2-[[(2S)-2-[[(2S)-2-amino-3-(4-hydroxyphenyl)propanoyl]amino]-4-methyl-pentanoyl]amino]-5-guanidino-pentanoyl]amino]-3-methyl-pentanoyl]amino]-3-methyl-butanoyl]amino]-5-oxo-pentanoyl]amino]-13-(2-carboxyethyl)-22-(3-guanidinopropyl)-7,19-bis(hydroxymethyl)-16-isopropyl-6,9,12,15,18,21,24-heptaoxo-1,2-dithia-5,8,11,14,17,20,23-heptazacyclohexacosane-4-carbonyl]amino]acetyl]amino]-3-phenyl-propanoic acid

> <PUBCHEM_IUPAC_CAS_NAME>
(2S)-2-[[2-[[[(4R,7S,13S,16S,19S,22S,25R)-25-[[(2S)-5-amino-2-[[(2S)-2-[[(2S,3S)-2-[[(2S)-2-[[(2S)-2-[[(2S)-2-amino-3-(4-hydroxyphenyl)-1-oxopropyl]amino]-4-methyl-1-oxopentyl]amino]-5-carbamimidamido-1-oxopentyl]amino]-3-methyl-1-oxopentyl]amino]-3-methyl-1-oxobutyl]amino]-1,5-dioxopentyl]amino]-22-(3-carbamimidamidopropyl)-13-(2-carboxyethyl)-7,19-bis(hydroxymethyl)-6,9,12,15,18,21,24-heptaoxo-16-propan-2-yl-1,2-dithia-5,8,11,14,17,20,23-heptazacyclohexacos-4-yl]-oxomethyl]amino]-1-oxoethyl]amino]-3-phenylpropanoic acid

> <PUBCHEM_IUPAC_NAME_MARKUP>
(2<I>S</I>)-2-[[2-[[(4<I>R</I>,7<I>S</I>,13<I>S</I>,16<I>S</I>,19<I>S</I>,22<I>S</I>,25<I>R</I>)-25-[[(2<I>S</I>)-5-amino-2-[[(2<I>S</I>)-2-[[(2<I>S</I>,3<I>S</I>)-2-[[(2<I>S</I>)-2-[[(2<I>S</I>)-2-[[(2<I>S</I>)-2-amino-3-(4-hydroxyphenyl)propanoyl]amino]-4-methylpentanoyl]amino]-5-carbamimidamidopentanoyl]amino]-3-methylpentanoyl]amino]-3-methylbutanoyl]amino]-5-oxopentanoyl]amino]-22-(3-carbamimidamidopropyl)-13-(2-carboxyethyl)-7,19-bis(hydroxymethyl)-6,9,12,15,18,21,24-heptaoxo-16-propan-2-yl-1,2-dithia-5,8,11,14,17,20,23-heptazacyclohexacosane-4-carbonyl]amino]acetyl]amino]-3-phenylpropanoic acid

> <PUBCHEM_IUPAC_NAME>
(2S)-2-[[2-[[(4R,7S,13S,16S,19S,22S,25R)-25-[[(2S)-5-amino-2-[[(2S)-2-[[(2S,3S)-2-[[(2S)-2-[[(2S)-2-[[(2S)-2-amino-3-(4-hydroxyphenyl)propanoyl]amino]-4-methylpentanoyl]amino]-5-carbamimidamidopentanoyl]amino]-3-methylpentanoyl]amino]-3-methylbutanoyl]amino]-5-oxopentanoyl]amino]-22-(3-carbamimidamidopropyl)-13-(2-carboxyethyl)-7,19-bis(hydroxymethyl)-6,9,12,15,18,21,24-heptaoxo-16-propan-2-yl-1,2-dithia-5,8,11,14,17,20,23-heptazacyclohexacosane-4-carbonyl]amino]acetyl]amino]-3-phenylpropanoic acid

> <PUBCHEM_IUPAC_SYSTEMATIC_NAME>
(2S)-2-[2-[[(4R,7S,13S,16S,19S,22S,25R)-25-[[(2S)-5-azanyl-2-[[(2S)-2-[[(2S,3S)-2-[[(2S)-2-[[(2S)-2-[[(2S)-2-azanyl-3-(4-hydroxyphenyl)propanoyl]amino]-4-methyl-pentanoyl]amino]-5-carbamimidamido-pentanoyl]amino]-3-methyl-pentanoyl]amino]-3-methyl-butanoyl]amino]-5-oxidanylidene-pentanoyl]amino]-22-(3-carbamimidamidopropyl)-7,19-bis(hydroxymethyl)-13-(3-hydroxy-3-oxopropyl)-6,9,12,15,18,21,24-heptakis(oxidanylidene)-16-propan-2-yl-1,2-dithia-5,8,11,14,17,20,23-heptazacyclohexacos-4-yl]carbonylamino]ethanoylamino]-3-phenyl-propanoic acid

> <PUBCHEM_IUPAC_TRADITIONAL_NAME>
(2S)-2-[[2-[[(4R,7S,13S,16S,19S,22S,25R)-25-[[(2S)-5-amino-2-[[(2S)-2-[[(2S,3S)-2-[[(2S)-2-[[(2S)-2-[[(2S)-2-amino-3-(4-hydroxyphenyl)propanoyl]amino]-4-methyl-pentanoyl]amino]-5-guanidino-pentanoyl]amino]-3-methyl-pentanoyl]amino]-3-methyl-butanoyl]amino]-5-keto-pentanoyl]amino]-13-(2-carboxyethyl)-22-(3-guanidinopropyl)-16-isopropyl-6,9,12,15,18,21,24-heptaketo-7,19-dimethylol-1,2-dithia-5,8,11,14,17,20,23-heptazacyclohexacosane-4-carbonyl]amino]acetyl]amino]-3-phenyl-propionic acid

> <PUBCHEM_IUPAC_INCHI>
InChI=1S/C78H123N23O23S2/c1-9-41(8)62(101-68(115)47(18-14-28-86-78(83)84)91-69(116)50(29-38(2)3)95-63(110)45(79)30-43-19-21-44(104)22-20-43)75(122)100-61(40(6)7)74(121)94-49(23-25-56(80)105)67(114)98-55-37-126-125-36-54(65(112)88-32-57(106)89-51(76(123)124)31-42-15-11-10-12-16-42)97-70(117)52(34-102)90-58(107)33-87-64(111)48(24-26-59(108)109)93-73(120)60(39(4)5)99-71(118)53(35-103)96-66(113)46(92-72(55)119)17-13-27-85-77(81)82/h10-12,15-16,19-22,38-41,45-55,60-62,102-104H,9,13-14,17-18,23-37,79H2,1-8H3,(H2,80,105)(H,87,111)(H,88,112)(H,89,106)(H,90,107)(H,91,116)(H,92,119)(H,93,120)(H,94,121)(H,95,110)(H,96,113)(H,97,117)(H,98,114)(H,99,118)(H,100,122)(H,101,115)(H,108,109)(H,123,124)(H4,81,82,85)(H4,83,84,86)/t41-,45-,46-,47-,48-,49-,50-,51-,52-,53-,54-,55-,60-,61-,62-/m0/s1

> <PUBCHEM_IUPAC_INCHIKEY>
GVIYUKXRXPXMQM-BPXGDYAESA-N

> <PUBCHEM_XLOGP3_AA>
-4.8

> <PUBCHEM_EXACT_MASS>
1813.86035961

> <PUBCHEM_MOLECULAR_FORMULA>
C78H123N23O23S2

> <PUBCHEM_MOLECULAR_WEIGHT>
1815.1

> <PUBCHEM_SMILES>
CC[C@H](C)[C@@H](C(=O)N[C@@H](C(C)C)C(=O)N[C@@H](CCC(=O)N)C(=O)N[C@H]1CSSC[C@H](NC(=O)[C@@H](NC(=O)CNC(=O)[C@@H](NC(=O)[C@@H](NC(=O)[C@@H](NC(=O)[C@@H](NC1=O)CCCNC(=N)N)CO)C(C)C)CCC(=O)O)CO)C(=O)NCC(=O)N[C@@H](CC2=CC=CC=C2)C(=O)O)NC(=O)[C@H](CCCNC(=N)N)NC(=O)[C@H](CC(C)C)NC(=O)[C@H](CC3=CC=C(C=C3)O)N

> <PUBCHEM_CONNECTIVITY_SMILES>
CCC(C)C(C(=O)NC(C(C)C)C(=O)NC(CCC(=O)N)C(=O)NC1CSSCC(NC(=O)C(NC(=O)CNC(=O)C(NC(=O)C(NC(=O)C(NC(=O)C(NC1=O)CCCNC(=N)N)CO)C(C)C)CCC(=O)O)CO)C(=O)NCC(=O)NC(CC2=CC=CC=C2)C(=O)O)NC(=O)C(CCCNC(=N)N)NC(=O)C(CC(C)C)NC(=O)C(CC3=CC=C(C=C3)O)N

> <PUBCHEM_CACTVS_TPSA>
815

> <PUBCHEM_MONOISOTOPIC_WEIGHT>
1813.86035961

> <PUBCHEM_TOTAL_CHARGE>
0

> <PUBCHEM_HEAVY_ATOM_COUNT>
126

> <PUBCHEM_ATOM_DEF_STEREO_COUNT>
15

> <PUBCHEM_ATOM_UDEF_STEREO_COUNT>
0

> <PUBCHEM_BOND_DEF_STEREO_COUNT>
0

> <PUBCHEM_BOND_UDEF_STEREO_COUNT>
0

> <PUBCHEM_ISOTOPIC_ATOM_COUNT>
0

> <PUBCHEM_COMPONENT_COUNT>
1

> <PUBCHEM_CACTVS_TAUTO_COUNT>
-1

> <PUBCHEM_COORDINATE_TYPE>
1
5
255

> <PUBCHEM_BONDANNOTATIONS>
100  104  8
103  105  8
104  105  8
107  112  6
111  115  5
120  122  8
120  123  8
122  124  8
123  125  8
124  126  8
125  126  8
49  26  6
51  27  5
53  28  5
68  29  6
59  30  6
77  31  6
76  34  5
118  48  6
50  56  5
78  81  5
82  84  6
88  97  5
90  100  8
90  99  8
95  98  5
99  103  8

$$$$
