9941957
  -OEChem-11132518582D

198201  0     1  0  0  0  0  0999 V2000
    5.5724   -5.9747    0.0000 O   0  0  0  0  0  0  0  0  0  0  0  0
    4.8913   -4.7951    0.0000 O   0  0  0  0  0  0  0  0  0  0  0  0
    6.9047   -6.2579    0.0000 O   0  0  0  0  0  0  0  0  0  0  0  0
    5.3122   -3.4997    0.0000 O   0  0  0  0  0  0  0  0  0  0  0  0
    9.9658   -8.1631    0.0000 O   0  0  0  0  0  0  0  0  0  0  0  0
    5.1928    0.1039    0.0000 O   0  0  0  0  0  0  0  0  0  0  0  0
    8.7891    0.3618    0.0000 O   0  0  0  0  0  0  0  0  0  0  0  0
   10.3816  -10.1194    0.0000 O   0  0  0  0  0  0  0  0  0  0  0  0
    8.6874  -10.4795    0.0000 O   0  0  0  0  0  0  0  0  0  0  0  0
   10.8995    2.4158    0.0000 O   0  0  0  0  0  0  0  0  0  0  0  0
   11.7655    1.9159    0.0000 O   0  0  0  0  0  0  0  0  0  0  0  0
   14.4976   -0.5842    0.0000 O   0  0  0  0  0  0  0  0  0  0  0  0
   15.3636    1.9159    0.0000 O   0  0  0  0  0  0  0  0  0  0  0  0
   14.4976    3.4159    0.0000 O   0  0  0  0  0  0  0  0  0  0  0  0
   14.9662    6.4159    0.0000 O   0  0  0  0  0  0  0  0  0  0  0  0
    6.7700    8.9159    0.0000 O   0  0  0  0  0  0  0  0  0  0  0  0
   16.6982   10.4158    0.0000 O   0  0  0  0  0  0  0  0  0  0  0  0
   17.5642    8.9159    0.0000 O   0  0  0  0  0  0  0  0  0  0  0  0
    3.1719    7.9159    0.0000 O   0  0  0  0  0  0  0  0  0  0  0  0
    9.5021    6.4159    0.0000 O   0  0  0  0  0  0  0  0  0  0  0  0
    4.0380    6.4159    0.0000 O   0  0  0  0  0  0  0  0  0  0  0  0
   12.2341    8.9159    0.0000 O   0  0  0  0  0  0  0  0  0  0  0  0
    3.9901   -6.6792    0.0000 N   0  0  0  0  0  0  0  0  0  0  0  0
    3.3090   -4.0906    0.0000 N   0  0  0  0  0  0  0  0  0  0  0  0
    6.3695   -7.9052    0.0000 N   0  0  0  0  0  0  0  0  0  0  0  0
    4.7770   -1.8524    0.0000 N   0  0  0  0  0  0  0  0  0  0  0  0
    8.8068   -6.8759    0.0000 N   0  0  0  0  0  0  0  0  0  0  0  0
    8.2539    2.0091    0.0000 N   0  0  0  0  0  0  0  0  0  0  0  0
    6.8870   -0.2562    0.0000 N   0  0  0  0  0  0  0  0  0  0  0  0
   10.0335    0.9158    0.0000 N   0  0  0  0  0  0  0  0  0  0  0  0
   11.4521   -6.8248    0.0000 N   0  0  0  0  0  0  0  0  0  0  0  0
   12.7655    0.4158    0.0000 N   0  0  0  0  0  0  0  0  0  0  0  0
    3.4986    0.4640    0.0000 N   0  0  0  0  0  0  0  0  0  0  0  0
   16.6982    7.4159    0.0000 N   0  0  0  0  0  0  0  0  0  0  0  0
   13.9662    7.9159    0.0000 N   0  0  0  0  0  0  0  0  0  0  0  0
    5.7700    7.4159    0.0000 N   0  0  0  0  0  0  0  0  0  0  0  0
    8.5021    7.9159    0.0000 N   0  0  0  0  0  0  0  0  0  0  0  0
   11.2341    7.4159    0.0000 N   0  0  0  0  0  0  0  0  0  0  0  0
    3.4901   -5.8132    0.0000 C   0  0  1  0  0  0  0  0  0  0  0  0
    5.3913   -7.6973    0.0000 C   0  0  2  0  0  0  0  0  0  0  0  0
    2.5119   -6.0211    0.0000 C   0  0  0  0  0  0  0  0  0  0  0  0
    3.3209   -7.4223    0.0000 C   0  0  0  0  0  0  0  0  0  0  0  0
    2.4074   -7.0156    0.0000 C   0  0  0  0  0  0  0  0  0  0  0  0
    4.9846   -6.7837    0.0000 C   0  0  0  0  0  0  0  0  0  0  0  0
    4.8913   -8.5633    0.0000 C   0  0  0  0  0  0  0  0  0  0  0  0
    3.8968   -4.8996    0.0000 C   0  0  0  0  0  0  0  0  0  0  0  0
    3.6180   -3.1396    0.0000 C   0  0  1  0  0  0  0  0  0  0  0  0
    5.5605   -9.3064    0.0000 C   0  0  0  0  0  0  0  0  0  0  0  0
    6.4740   -8.8997    0.0000 C   0  0  0  0  0  0  0  0  0  0  0  0
    2.3090   -4.0906    0.0000 C   0  0  0  0  0  0  0  0  0  0  0  0
    2.8090   -2.5518    0.0000 C   0  0  0  0  0  0  0  0  0  0  0  0
    2.0000   -3.1396    0.0000 C   0  0  0  0  0  0  0  0  0  0  0  0
    7.1126   -7.2361    0.0000 C   0  0  0  0  0  0  0  0  0  0  0  0
    4.5691   -2.8305    0.0000 C   0  0  0  0  0  0  0  0  0  0  0  0
    8.0637   -7.5451    0.0000 C   0  0  2  0  0  0  0  0  0  0  0  0
    8.2716   -8.5232    0.0000 C   0  0  0  0  0  0  0  0  0  0  0  0
    5.7281   -1.5434    0.0000 C   0  0  0  0  0  0  0  0  0  0  0  0
    9.2226   -8.8322    0.0000 C   0  0  0  0  0  0  0  0  0  0  0  0
    9.1675    2.4158    0.0000 C   0  0  1  0  0  0  0  0  0  0  0  0
    9.0629    3.4104    0.0000 C   0  0  0  0  0  0  0  0  0  0  0  0
    7.5848    2.7523    0.0000 C   0  0  0  0  0  0  0  0  0  0  0  0
    8.0848    3.6183    0.0000 C   0  0  0  0  0  0  0  0  0  0  0  0
    7.0949    0.7219    0.0000 C   0  0  2  0  0  0  0  0  0  0  0  0
    9.7579   -7.1850    0.0000 C   0  0  0  0  0  0  0  0  0  0  0  0
    5.9360   -0.5652    0.0000 C   0  0  0  0  0  0  0  0  0  0  0  0
    8.0460    1.0310    0.0000 C   0  0  0  0  0  0  0  0  0  0  0  0
    6.3518    1.3911    0.0000 C   0  0  0  0  0  0  0  0  0  0  0  0
    9.4306   -9.8104    0.0000 C   0  0  0  0  0  0  0  0  0  0  0  0
   10.0335    1.9158    0.0000 C   0  0  0  0  0  0  0  0  0  0  0  0
   10.5010   -6.5158    0.0000 C   0  0  0  0  0  0  0  0  0  0  0  0
    5.4007    1.0821    0.0000 C   0  0  0  0  0  0  0  0  0  0  0  0
    4.6576    1.7512    0.0000 C   0  0  0  0  0  0  0  0  0  0  0  0
   10.8995    0.4158    0.0000 C   0  0  1  0  0  0  0  0  0  0  0  0
    3.7065    1.4422    0.0000 C   0  0  0  0  0  0  0  0  0  0  0  0
   10.8995   -0.5842    0.0000 C   0  0  0  0  0  0  0  0  0  0  0  0
   11.7655    0.9158    0.0000 C   0  0  0  0  0  0  0  0  0  0  0  0
   13.6316    0.9158    0.0000 C   0  0  1  0  0  0  0  0  0  0  0  0
   13.6316    1.9159    0.0000 C   0  0  0  0  0  0  0  0  0  0  0  0
   14.4976    0.4158    0.0000 C   0  0  0  0  0  0  0  0  0  0  0  0
   14.4976    2.4159    0.0000 C   0  0  0  0  0  0  0  0  0  0  0  0
   15.8322    7.9159    0.0000 C   0  0  1  0  0  0  0  0  0  0  0  0
   15.8322    8.9159    0.0000 C   0  0  0  0  0  0  0  0  0  0  0  0
    7.6360    6.4159    0.0000 C   0  0  0  0  0  0  0  0  0  0  0  0
    7.6360    7.4159    0.0000 C   0  0  1  0  0  0  0  0  0  0  0  0
    6.7700    5.9159    0.0000 C   0  0  0  0  0  0  0  0  0  0  0  0
   14.9662    7.4159    0.0000 C   0  0  0  0  0  0  0  0  0  0  0  0
    4.9040    7.9159    0.0000 C   0  0  1  0  0  0  0  0  0  0  0  0
    4.9040    8.9159    0.0000 C   0  0  0  0  0  0  0  0  0  0  0  0
    6.7700    7.9159    0.0000 C   0  0  0  0  0  0  0  0  0  0  0  0
    6.7700    4.9159    0.0000 C   0  0  0  0  0  0  0  0  0  0  0  0
    5.9040    6.4159    0.0000 C   0  0  0  0  0  0  0  0  0  0  0  0
   13.1001    7.4159    0.0000 C   0  0  2  0  0  0  0  0  0  0  0  0
   16.6982    9.4159    0.0000 C   0  0  0  0  0  0  0  0  0  0  0  0
    4.0380    9.4159    0.0000 C   0  0  0  0  0  0  0  0  0  0  0  0
    5.7700    9.4159    0.0000 C   0  0  0  0  0  0  0  0  0  0  0  0
    9.5021    7.4159    0.0000 C   0  0  0  0  0  0  0  0  0  0  0  0
    4.0380    7.4159    0.0000 C   0  0  0  0  0  0  0  0  0  0  0  0
   10.3681    7.9159    0.0000 C   0  0  0  0  0  0  0  0  0  0  0  0
   12.2341    7.9159    0.0000 C   0  0  0  0  0  0  0  0  0  0  0  0
   13.1001    6.4159    0.0000 C   0  0  0  0  0  0  0  0  0  0  0  0
    4.1092   -5.7807    0.0000 H   0  0  0  0  0  0  0  0  0  0  0  0
    5.7815   -7.2154    0.0000 H   0  0  0  0  0  0  0  0  0  0  0  0
    2.4471   -5.4045    0.0000 H   0  0  0  0  0  0  0  0  0  0  0  0
    1.8919   -6.0211    0.0000 H   0  0  0  0  0  0  0  0  0  0  0  0
    3.0109   -7.9593    0.0000 H   0  0  0  0  0  0  0  0  0  0  0  0
    3.8225   -7.7868    0.0000 H   0  0  0  0  0  0  0  0  0  0  0  0
    1.8009   -6.8867    0.0000 H   0  0  0  0  0  0  0  0  0  0  0  0
    2.2158   -7.6053    0.0000 H   0  0  0  0  0  0  0  0  0  0  0  0
    4.3897   -8.1989    0.0000 H   0  0  0  0  0  0  0  0  0  0  0  0
    4.4765   -9.0240    0.0000 H   0  0  0  0  0  0  0  0  0  0  0  0
    4.0564   -3.5780    0.0000 H   0  0  0  0  0  0  0  0  0  0  0  0
    5.0589   -9.6709    0.0000 H   0  0  0  0  0  0  0  0  0  0  0  0
    5.8705   -9.8434    0.0000 H   0  0  0  0  0  0  0  0  0  0  0  0
    6.6656   -9.4894    0.0000 H   0  0  0  0  0  0  0  0  0  0  0  0
    7.0805   -8.7708    0.0000 H   0  0  0  0  0  0  0  0  0  0  0  0
    1.7026   -4.2195    0.0000 H   0  0  0  0  0  0  0  0  0  0  0  0
    2.3738   -4.7072    0.0000 H   0  0  0  0  0  0  0  0  0  0  0  0
    3.2239   -2.0910    0.0000 H   0  0  0  0  0  0  0  0  0  0  0  0
    2.3942   -2.0910    0.0000 H   0  0  0  0  0  0  0  0  0  0  0  0
    1.6900   -2.6026    0.0000 H   0  0  0  0  0  0  0  0  0  0  0  0
    1.4336   -3.3917    0.0000 H   0  0  0  0  0  0  0  0  0  0  0  0
    7.9348   -6.9386    0.0000 H   0  0  0  0  0  0  0  0  0  0  0  0
    7.6520   -8.5449    0.0000 H   0  0  0  0  0  0  0  0  0  0  0  0
    8.1853   -9.1372    0.0000 H   0  0  0  0  0  0  0  0  0  0  0  0
    4.3163   -1.4375    0.0000 H   0  0  0  0  0  0  0  0  0  0  0  0
    8.6779   -6.2695    0.0000 H   0  0  0  0  0  0  0  0  0  0  0  0
    5.8144   -2.1573    0.0000 H   0  0  0  0  0  0  0  0  0  0  0  0
    6.3477   -1.5650    0.0000 H   0  0  0  0  0  0  0  0  0  0  0  0
    9.8423   -8.8106    0.0000 H   0  0  0  0  0  0  0  0  0  0  0  0
    9.3089   -8.2183    0.0000 H   0  0  0  0  0  0  0  0  0  0  0  0
    9.1350    1.7967    0.0000 H   0  0  0  0  0  0  0  0  0  0  0  0
    9.6829    3.4104    0.0000 H   0  0  0  0  0  0  0  0  0  0  0  0
    9.1277    4.0270    0.0000 H   0  0  0  0  0  0  0  0  0  0  0  0
    7.0832    3.1167    0.0000 H   0  0  0  0  0  0  0  0  0  0  0  0
    7.1699    2.2915    0.0000 H   0  0  0  0  0  0  0  0  0  0  0  0
    8.2764    4.2079    0.0000 H   0  0  0  0  0  0  0  0  0  0  0  0
    7.5184    3.8705    0.0000 H   0  0  0  0  0  0  0  0  0  0  0  0
    7.5557    0.3071    0.0000 H   0  0  0  0  0  0  0  0  0  0  0  0
    7.3478   -0.6711    0.0000 H   0  0  0  0  0  0  0  0  0  0  0  0
    6.8404    1.7728    0.0000 H   0  0  0  0  0  0  0  0  0  0  0  0
    6.0607    1.9385    0.0000 H   0  0  0  0  0  0  0  0  0  0  0  0
   10.7921   -5.9684    0.0000 H   0  0  0  0  0  0  0  0  0  0  0  0
   10.0125   -6.1341    0.0000 H   0  0  0  0  0  0  0  0  0  0  0  0
    4.9122    0.7003    0.0000 H   0  0  0  0  0  0  0  0  0  0  0  0
    5.6918    0.5346    0.0000 H   0  0  0  0  0  0  0  0  0  0  0  0
   10.5704    0.6058    0.0000 H   0  0  0  0  0  0  0  0  0  0  0  0
    5.1462    2.1329    0.0000 H   0  0  0  0  0  0  0  0  0  0  0  0
    4.3665    2.2986    0.0000 H   0  0  0  0  0  0  0  0  0  0  0  0
   10.3626    0.1058    0.0000 H   0  0  0  0  0  0  0  0  0  0  0  0
   10.5105  -10.7258    0.0000 H   0  0  0  0  0  0  0  0  0  0  0  0
   11.9128   -6.4100    0.0000 H   0  0  0  0  0  0  0  0  0  0  0  0
   11.5810   -7.4313    0.0000 H   0  0  0  0  0  0  0  0  0  0  0  0
    3.6203    2.0561    0.0000 H   0  0  0  0  0  0  0  0  0  0  0  0
    3.0869    1.4638    0.0000 H   0  0  0  0  0  0  0  0  0  0  0  0
   10.2795   -0.5842    0.0000 H   0  0  0  0  0  0  0  0  0  0  0  0
   10.8995   -1.2042    0.0000 H   0  0  0  0  0  0  0  0  0  0  0  0
   11.5195   -0.5842    0.0000 H   0  0  0  0  0  0  0  0  0  0  0  0
   13.3025    0.1058    0.0000 H   0  0  0  0  0  0  0  0  0  0  0  0
    2.9090    0.2724    0.0000 H   0  0  0  0  0  0  0  0  0  0  0  0
    3.9594    0.0492    0.0000 H   0  0  0  0  0  0  0  0  0  0  0  0
   13.0946    1.2259    0.0000 H   0  0  0  0  0  0  0  0  0  0  0  0
   13.4195    2.4985    0.0000 H   0  0  0  0  0  0  0  0  0  0  0  0
   13.0210    1.8082    0.0000 H   0  0  0  0  0  0  0  0  0  0  0  0
   17.2352    7.1059    0.0000 H   0  0  0  0  0  0  0  0  0  0  0  0
   15.8322    7.2959    0.0000 H   0  0  0  0  0  0  0  0  0  0  0  0
   15.6201    9.4985    0.0000 H   0  0  0  0  0  0  0  0  0  0  0  0
   15.2216    8.8082    0.0000 H   0  0  0  0  0  0  0  0  0  0  0  0
    7.8481    5.8332    0.0000 H   0  0  0  0  0  0  0  0  0  0  0  0
    8.2466    6.5235    0.0000 H   0  0  0  0  0  0  0  0  0  0  0  0
    8.1730    7.1059    0.0000 H   0  0  0  0  0  0  0  0  0  0  0  0
    7.3070    5.6059    0.0000 H   0  0  0  0  0  0  0  0  0  0  0  0
    5.4409    8.2259    0.0000 H   0  0  0  0  0  0  0  0  0  0  0  0
    4.9040    9.5359    0.0000 H   0  0  0  0  0  0  0  0  0  0  0  0
   15.9005    2.2259    0.0000 H   0  0  0  0  0  0  0  0  0  0  0  0
    6.3070    7.1059    0.0000 H   0  0  0  0  0  0  0  0  0  0  0  0
   14.5031    8.2259    0.0000 H   0  0  0  0  0  0  0  0  0  0  0  0
    9.0390    8.2259    0.0000 H   0  0  0  0  0  0  0  0  0  0  0  0
    6.1500    4.9159    0.0000 H   0  0  0  0  0  0  0  0  0  0  0  0
    6.7700    4.2959    0.0000 H   0  0  0  0  0  0  0  0  0  0  0  0
    7.3900    4.9159    0.0000 H   0  0  0  0  0  0  0  0  0  0  0  0
    6.2140    6.9528    0.0000 H   0  0  0  0  0  0  0  0  0  0  0  0
    5.3671    6.7259    0.0000 H   0  0  0  0  0  0  0  0  0  0  0  0
    5.5940    5.8789    0.0000 H   0  0  0  0  0  0  0  0  0  0  0  0
   13.6371    7.1059    0.0000 H   0  0  0  0  0  0  0  0  0  0  0  0
    4.3480    9.9528    0.0000 H   0  0  0  0  0  0  0  0  0  0  0  0
    3.5010    9.7259    0.0000 H   0  0  0  0  0  0  0  0  0  0  0  0
    3.7280    8.8789    0.0000 H   0  0  0  0  0  0  0  0  0  0  0  0
    6.0800    8.8789    0.0000 H   0  0  0  0  0  0  0  0  0  0  0  0
    6.3070    9.7259    0.0000 H   0  0  0  0  0  0  0  0  0  0  0  0
    5.4600    9.9528    0.0000 H   0  0  0  0  0  0  0  0  0  0  0  0
   10.7666    8.3908    0.0000 H   0  0  0  0  0  0  0  0  0  0  0  0
    9.9696    8.3908    0.0000 H   0  0  0  0  0  0  0  0  0  0  0  0
   12.4801    6.4159    0.0000 H   0  0  0  0  0  0  0  0  0  0  0  0
   13.1001    5.7959    0.0000 H   0  0  0  0  0  0  0  0  0  0  0  0
   13.7201    6.4159    0.0000 H   0  0  0  0  0  0  0  0  0  0  0  0
   11.7711    7.1059    0.0000 H   0  0  0  0  0  0  0  0  0  0  0  0
   17.2352   10.7258    0.0000 H   0  0  0  0  0  0  0  0  0  0  0  0
    2.6350    7.6059    0.0000 H   0  0  0  0  0  0  0  0  0  0  0  0
  1 44  2  0  0  0  0
  2 46  2  0  0  0  0
  3 53  2  0  0  0  0
  4 54  2  0  0  0  0
  5 64  2  0  0  0  0
  6 65  2  0  0  0  0
  7 66  2  0  0  0  0
  8 68  1  0  0  0  0
  8150  1  0  0  0  0
  9 68  2  0  0  0  0
 10 69  2  0  0  0  0
 11 76  2  0  0  0  0
 12 79  2  0  0  0  0
 13 80  1  0  0  0  0
 13174  1  0  0  0  0
 14 80  2  0  0  0  0
 15 86  2  0  0  0  0
 16 89  2  0  0  0  0
 17 93  1  0  0  0  0
 17197  1  0  0  0  0
 18 93  2  0  0  0  0
 19 97  1  0  0  0  0
 19198  1  0  0  0  0
 20 96  2  0  0  0  0
 21 97  2  0  0  0  0
 22 99  2  0  0  0  0
 23 39  1  0  0  0  0
 23 42  1  0  0  0  0
 23 44  1  0  0  0  0
 24 46  1  0  0  0  0
 24 47  1  0  0  0  0
 24 50  1  0  0  0  0
 25 40  1  0  0  0  0
 25 49  1  0  0  0  0
 25 53  1  0  0  0  0
 26 54  1  0  0  0  0
 26 57  1  0  0  0  0
 26125  1  0  0  0  0
 55 27  1  1  0  0  0
 27 64  1  0  0  0  0
 27126  1  0  0  0  0
 28 59  1  0  0  0  0
 28 61  1  0  0  0  0
 28 66  1  0  0  0  0
 63 29  1  1  0  0  0
 29 65  1  0  0  0  0
 29139  1  0  0  0  0
 30 69  1  0  0  0  0
 73 30  1  6  0  0  0
 30146  1  0  0  0  0
 31 70  1  0  0  0  0
 31151  1  0  0  0  0
 31152  1  0  0  0  0
 32 76  1  0  0  0  0
 77 32  1  1  0  0  0
 32158  1  0  0  0  0
 33 74  1  0  0  0  0
 33159  1  0  0  0  0
 33160  1  0  0  0  0
 34 79  1  0  0  0  0
 81 34  1  6  0  0  0
 34164  1  0  0  0  0
 35 86  1  0  0  0  0
 92 35  1  1  0  0  0
 35176  1  0  0  0  0
 87 36  1  6  0  0  0
 36 89  1  0  0  0  0
 36175  1  0  0  0  0
 84 37  1  1  0  0  0
 37 96  1  0  0  0  0
 37177  1  0  0  0  0
 38 98  1  0  0  0  0
 38 99  1  0  0  0  0
 38196  1  0  0  0  0
 39 41  1  0  0  0  0
 39 46  1  1  0  0  0
 39101  1  0  0  0  0
 40 44  1  1  0  0  0
 40 45  1  0  0  0  0
 40102  1  0  0  0  0
 41 43  1  0  0  0  0
 41103  1  0  0  0  0
 41104  1  0  0  0  0
 42 43  1  0  0  0  0
 42105  1  0  0  0  0
 42106  1  0  0  0  0
 43107  1  0  0  0  0
 43108  1  0  0  0  0
 45 48  1  0  0  0  0
 45109  1  0  0  0  0
 45110  1  0  0  0  0
 47 51  1  0  0  0  0
 47 54  1  1  0  0  0
 47111  1  0  0  0  0
 48 49  1  0  0  0  0
 48112  1  0  0  0  0
 48113  1  0  0  0  0
 49114  1  0  0  0  0
 49115  1  0  0  0  0
 50 52  1  0  0  0  0
 50116  1  0  0  0  0
 50117  1  0  0  0  0
 51 52  1  0  0  0  0
 51118  1  0  0  0  0
 51119  1  0  0  0  0
 52120  1  0  0  0  0
 52121  1  0  0  0  0
 53 55  1  0  0  0  0
 55 56  1  0  0  0  0
 55122  1  0  0  0  0
 56 58  1  0  0  0  0
 56123  1  0  0  0  0
 56124  1  0  0  0  0
 57 65  1  0  0  0  0
 57127  1  0  0  0  0
 57128  1  0  0  0  0
 58 68  1  0  0  0  0
 58129  1  0  0  0  0
 58130  1  0  0  0  0
 59 60  1  0  0  0  0
 59 69  1  1  0  0  0
 59131  1  0  0  0  0
 60 62  1  0  0  0  0
 60132  1  0  0  0  0
 60133  1  0  0  0  0
 61 62  1  0  0  0  0
 61134  1  0  0  0  0
 61135  1  0  0  0  0
 62136  1  0  0  0  0
 62137  1  0  0  0  0
 63 66  1  0  0  0  0
 63 67  1  0  0  0  0
 63138  1  0  0  0  0
 64 70  1  0  0  0  0
 67 71  1  0  0  0  0
 67140  1  0  0  0  0
 67141  1  0  0  0  0
 70142  1  0  0  0  0
 70143  1  0  0  0  0
 71 72  1  0  0  0  0
 71144  1  0  0  0  0
 71145  1  0  0  0  0
 72 74  1  0  0  0  0
 72147  1  0  0  0  0
 72148  1  0  0  0  0
 73 75  1  0  0  0  0
 73 76  1  0  0  0  0
 73149  1  0  0  0  0
 74153  1  0  0  0  0
 74154  1  0  0  0  0
 75155  1  0  0  0  0
 75156  1  0  0  0  0
 75157  1  0  0  0  0
 77 78  1  0  0  0  0
 77 79  1  0  0  0  0
 77161  1  0  0  0  0
 78 80  1  0  0  0  0
 78162  1  0  0  0  0
 78163  1  0  0  0  0
 81 82  1  0  0  0  0
 81 86  1  0  0  0  0
 81165  1  0  0  0  0
 82 93  1  0  0  0  0
 82166  1  0  0  0  0
 82167  1  0  0  0  0
 83 84  1  0  0  0  0
 83 85  1  0  0  0  0
 83168  1  0  0  0  0
 83169  1  0  0  0  0
 84 89  1  0  0  0  0
 84170  1  0  0  0  0
 85 90  1  0  0  0  0
 85 91  1  0  0  0  0
 85171  1  0  0  0  0
 87 88  1  0  0  0  0
 87 97  1  0  0  0  0
 87172  1  0  0  0  0
 88 94  1  0  0  0  0
 88 95  1  0  0  0  0
 88173  1  0  0  0  0
 90178  1  0  0  0  0
 90179  1  0  0  0  0
 90180  1  0  0  0  0
 91181  1  0  0  0  0
 91182  1  0  0  0  0
 91183  1  0  0  0  0
 92 99  1  0  0  0  0
 92100  1  0  0  0  0
 92184  1  0  0  0  0
 94185  1  0  0  0  0
 94186  1  0  0  0  0
 94187  1  0  0  0  0
 95188  1  0  0  0  0
 95189  1  0  0  0  0
 95190  1  0  0  0  0
 96 98  1  0  0  0  0
 98191  1  0  0  0  0
 98192  1  0  0  0  0
100193  1  0  0  0  0
100194  1  0  0  0  0
100195  1  0  0  0  0
M  END
> <PUBCHEM_COMPOUND_CID>
9941957

> <PUBCHEM_COMPOUND_CANONICALIZED>
1

> <PUBCHEM_CACTVS_COMPLEXITY>
3040

> <PUBCHEM_CACTVS_HBOND_ACCEPTOR>
24

> <PUBCHEM_CACTVS_HBOND_DONOR>
16

> <PUBCHEM_CACTVS_ROTATABLE_BOND>
39

> <PUBCHEM_CACTVS_SUBSKEYS>
AAADcfB//gAAAAAAAAAAAAAAAAAAAWLFiwAAAAAAAAAAAAAAAAAAHgAQCAAADSjBgAQCCAPAAgAIAAGQGAAAAAAAAAAAAIGIAAACQBoAgCAUQAAGFgCQAAG/HwIMAAAAAAAAAAAAAAAAAAAAAAAAAAAAAA==

> <PUBCHEM_IUPAC_OPENEYE_NAME>
(4S)-4-[(2-aminoacetyl)amino]-5-[(2S)-2-[(2S)-2-[(2S)-2-[[2-[[(1S)-5-amino-1-[(2S)-2-[[(1S)-2-[[(1S)-1-(carboxymethyl)-2-[[(1S)-1-(carboxymethyl)-2-[[(1S)-2-[[2-[[(1S)-1-[[(1S)-1-carboxy-2-methyl-propyl]carbamoyl]-3-methyl-butyl]amino]-2-oxo-ethyl]amino]-1-methyl-2-oxo-ethyl]amino]-2-oxo-ethyl]amino]-2-oxo-ethyl]amino]-1-methyl-2-oxo-ethyl]carbamoyl]pyrrolidine-1-carbonyl]pentyl]amino]-2-oxo-ethyl]carbamoyl]pyrrolidine-1-carbonyl]pyrrolidine-1-carbonyl]pyrrolidin-1-yl]-5-oxo-pentanoic acid

> <PUBCHEM_IUPAC_CAS_NAME>
(4S)-5-[(2S)-2-[[(2S)-2-[[(2S)-2-[[[2-[[(2S)-6-amino-1-[(2S)-2-[[[(2S)-1-[[(2S)-3-carboxy-1-[[(2S)-3-carboxy-1-[[(2S)-1-[[2-[[(2S)-1-[[(1S)-1-carboxy-2-methylpropyl]amino]-4-methyl-1-oxopentan-2-yl]amino]-2-oxoethyl]amino]-1-oxopropan-2-yl]amino]-1-oxopropan-2-yl]amino]-1-oxopropan-2-yl]amino]-1-oxopropan-2-yl]amino]-oxomethyl]-1-pyrrolidinyl]-1-oxohexan-2-yl]amino]-2-oxoethyl]amino]-oxomethyl]-1-pyrrolidinyl]-oxomethyl]-1-pyrrolidinyl]-oxomethyl]-1-pyrrolidinyl]-4-[(2-amino-1-oxoethyl)amino]-5-oxopentanoic acid

> <PUBCHEM_IUPAC_NAME_MARKUP>
(4<I>S</I>)-4-[(2-aminoacetyl)amino]-5-[(2<I>S</I>)-2-[(2<I>S</I>)-2-[(2<I>S</I>)-2-[[2-[[(2<I>S</I>)-6-amino-1-[(2<I>S</I>)-2-[[(2<I>S</I>)-1-[[(2<I>S</I>)-3-carboxy-1-[[(2<I>S</I>)-3-carboxy-1-[[(2<I>S</I>)-1-[[2-[[(2<I>S</I>)-1-[[(1<I>S</I>)-1-carboxy-2-methylpropyl]amino]-4-methyl-1-oxopentan-2-yl]amino]-2-oxoethyl]amino]-1-oxopropan-2-yl]amino]-1-oxopropan-2-yl]amino]-1-oxopropan-2-yl]amino]-1-oxopropan-2-yl]carbamoyl]pyrrolidin-1-yl]-1-oxohexan-2-yl]amino]-2-oxoethyl]carbamoyl]pyrrolidine-1-carbonyl]pyrrolidine-1-carbonyl]pyrrolidin-1-yl]-5-oxopentanoic acid

> <PUBCHEM_IUPAC_NAME>
(4S)-4-[(2-aminoacetyl)amino]-5-[(2S)-2-[(2S)-2-[(2S)-2-[[2-[[(2S)-6-amino-1-[(2S)-2-[[(2S)-1-[[(2S)-3-carboxy-1-[[(2S)-3-carboxy-1-[[(2S)-1-[[2-[[(2S)-1-[[(1S)-1-carboxy-2-methylpropyl]amino]-4-methyl-1-oxopentan-2-yl]amino]-2-oxoethyl]amino]-1-oxopropan-2-yl]amino]-1-oxopropan-2-yl]amino]-1-oxopropan-2-yl]amino]-1-oxopropan-2-yl]carbamoyl]pyrrolidin-1-yl]-1-oxohexan-2-yl]amino]-2-oxoethyl]carbamoyl]pyrrolidine-1-carbonyl]pyrrolidine-1-carbonyl]pyrrolidin-1-yl]-5-oxopentanoic acid

> <PUBCHEM_IUPAC_SYSTEMATIC_NAME>
(4S)-4-(2-azanylethanoylamino)-5-[(2S)-2-[(2S)-2-[(2S)-2-[[2-[[(2S)-6-azanyl-1-[(2S)-2-[[(2S)-1-[[(2S)-1-[[(2S)-1-[[(2S)-1-[[2-[[(2S)-4-methyl-1-[[(2S)-3-methyl-1-oxidanyl-1-oxidanylidene-butan-2-yl]amino]-1-oxidanylidene-pentan-2-yl]amino]-2-oxidanylidene-ethyl]amino]-1-oxidanylidene-propan-2-yl]amino]-4-oxidanyl-1,4-bis(oxidanylidene)butan-2-yl]amino]-4-oxidanyl-1,4-bis(oxidanylidene)butan-2-yl]amino]-1-oxidanylidene-propan-2-yl]carbamoyl]pyrrolidin-1-yl]-1-oxidanylidene-hexan-2-yl]amino]-2-oxidanylidene-ethyl]carbamoyl]pyrrolidin-1-yl]carbonylpyrrolidin-1-yl]carbonylpyrrolidin-1-yl]-5-oxidanylidene-pentanoic acid

> <PUBCHEM_IUPAC_TRADITIONAL_NAME>
(4S)-5-[(2S)-2-[(2S)-2-[(2S)-2-[[2-[[(1S)-5-amino-1-[(2S)-2-[[(1S)-2-[[(1S)-1-(carboxymethyl)-2-[[(1S)-1-(carboxymethyl)-2-[[(1S)-2-[[2-[[(1S)-1-[[(1S)-1-carboxy-2-methyl-propyl]carbamoyl]-3-methyl-butyl]amino]-2-keto-ethyl]amino]-2-keto-1-methyl-ethyl]amino]-2-keto-ethyl]amino]-2-keto-ethyl]amino]-2-keto-1-methyl-ethyl]carbamoyl]pyrrolidine-1-carbonyl]pentyl]amino]-2-keto-ethyl]carbamoyl]pyrrolidine-1-carbonyl]pyrrolidine-1-carbonyl]pyrrolidino]-4-(glycylamino)-5-keto-valeric acid

> <PUBCHEM_IUPAC_INCHI>
InChI=1S/C62H98N16O22/c1-31(2)25-37(55(92)74-50(32(3)4)62(99)100)71-46(81)29-65-51(88)33(5)67-53(90)38(26-48(84)85)73-54(91)39(27-49(86)87)72-52(89)34(6)68-57(94)41-15-10-21-75(41)58(95)35(13-7-8-20-63)70-45(80)30-66-56(93)40-14-9-22-76(40)60(97)43-17-12-24-78(43)61(98)42-16-11-23-77(42)59(96)36(18-19-47(82)83)69-44(79)28-64/h31-43,50H,7-30,63-64H2,1-6H3,(H,65,88)(H,66,93)(H,67,90)(H,68,94)(H,69,79)(H,70,80)(H,71,81)(H,72,89)(H,73,91)(H,74,92)(H,82,83)(H,84,85)(H,86,87)(H,99,100)/t33-,34-,35-,36-,37-,38-,39-,40-,41-,42-,43-,50-/m0/s1

> <PUBCHEM_IUPAC_INCHIKEY>
HEEWEZGQMLZMFE-RKGINYAYSA-N

> <PUBCHEM_XLOGP3_AA>
-9

> <PUBCHEM_EXACT_MASS>
1418.70415882

> <PUBCHEM_MOLECULAR_FORMULA>
C62H98N16O22

> <PUBCHEM_MOLECULAR_WEIGHT>
1419.5

> <PUBCHEM_SMILES>
C[C@@H](C(=O)N[C@@H](CC(=O)O)C(=O)N[C@@H](CC(=O)O)C(=O)N[C@@H](C)C(=O)NCC(=O)N[C@@H](CC(C)C)C(=O)N[C@@H](C(C)C)C(=O)O)NC(=O)[C@@H]1CCCN1C(=O)[C@H](CCCCN)NC(=O)CNC(=O)[C@@H]2CCCN2C(=O)[C@@H]3CCCN3C(=O)[C@@H]4CCCN4C(=O)[C@H](CCC(=O)O)NC(=O)CN

> <PUBCHEM_CONNECTIVITY_SMILES>
CC(C)CC(C(=O)NC(C(C)C)C(=O)O)NC(=O)CNC(=O)C(C)NC(=O)C(CC(=O)O)NC(=O)C(CC(=O)O)NC(=O)C(C)NC(=O)C1CCCN1C(=O)C(CCCCN)NC(=O)CNC(=O)C2CCCN2C(=O)C3CCCN3C(=O)C4CCCN4C(=O)C(CCC(=O)O)NC(=O)CN

> <PUBCHEM_CACTVS_TPSA>
573

> <PUBCHEM_MONOISOTOPIC_WEIGHT>
1418.70415882

> <PUBCHEM_TOTAL_CHARGE>
0

> <PUBCHEM_HEAVY_ATOM_COUNT>
100

> <PUBCHEM_ATOM_DEF_STEREO_COUNT>
12

> <PUBCHEM_ATOM_UDEF_STEREO_COUNT>
0

> <PUBCHEM_BOND_DEF_STEREO_COUNT>
0

> <PUBCHEM_BOND_UDEF_STEREO_COUNT>
0

> <PUBCHEM_ISOTOPIC_ATOM_COUNT>
0

> <PUBCHEM_COMPONENT_COUNT>
1

> <PUBCHEM_CACTVS_TAUTO_COUNT>
-1

> <PUBCHEM_COORDINATE_TYPE>
1
5
255

> <PUBCHEM_BONDANNOTATIONS>
55  27  5
63  29  5
73  30  6
77  32  5
81  34  6
92  35  5
87  36  6
84  37  5
39  46  5
40  44  5
47  54  5
59  69  5

$$$$
