219042
  -OEChem-11132518582D

 49 48  0     1  0  0  0  0  0999 V2000
    7.7331    0.5950    0.0000 O   0  0  0  0  0  0  0  0  0  0  0  0
    4.2690    1.5950    0.0000 O   0  0  0  0  0  0  0  0  0  0  0  0
    8.5991    0.0950    0.0000 O   0  0  0  0  0  0  0  0  0  0  0  0
    2.5369    0.5950    0.0000 O   0  0  0  0  0  0  0  0  0  0  0  0
    6.8671   -3.9050    0.0000 O   0  0  0  0  0  0  0  0  0  0  0  0
    3.4030   -0.9050    0.0000 O   0  0  0  0  0  0  0  0  0  0  0  0
    6.0010   -2.4050    0.0000 O   0  0  0  0  0  0  0  0  0  0  0  0
   12.0632   -0.9050    0.0000 O   0  0  0  0  0  0  0  0  0  0  0  0
   11.1972   -2.4050    0.0000 O   0  0  0  0  0  0  0  0  0  0  0  0
    6.0010    1.5950    0.0000 N   0  0  0  0  0  0  0  0  0  0  0  0
    6.8671   -0.9050    0.0000 N   0  0  0  0  0  0  0  0  0  0  0  0
    9.4651   -1.4050    0.0000 N   0  0  0  0  0  0  0  0  0  0  0  0
    4.2690    3.5950    0.0000 N   0  0  0  0  0  0  0  0  0  0  0  0
    6.0010    0.5950    0.0000 C   0  0  1  0  0  0  0  0  0  0  0  0
    5.1350    0.0950    0.0000 C   0  0  0  0  0  0  0  0  0  0  0  0
    7.7331   -1.4050    0.0000 C   0  0  1  0  0  0  0  0  0  0  0  0
    6.8671    0.0950    0.0000 C   0  0  0  0  0  0  0  0  0  0  0  0
    4.2690    0.5950    0.0000 C   0  0  0  0  0  0  0  0  0  0  0  0
    7.7331   -2.4050    0.0000 C   0  0  0  0  0  0  0  0  0  0  0  0
    5.1350    2.0950    0.0000 C   0  0  0  0  0  0  0  0  0  0  0  0
    8.5991   -0.9050    0.0000 C   0  0  0  0  0  0  0  0  0  0  0  0
    5.1350    3.0950    0.0000 C   0  0  2  0  0  0  0  0  0  0  0  0
    3.4030    0.0950    0.0000 C   0  0  0  0  0  0  0  0  0  0  0  0
    6.8671   -2.9050    0.0000 C   0  0  0  0  0  0  0  0  0  0  0  0
    6.0010    3.5950    0.0000 C   0  0  0  0  0  0  0  0  0  0  0  0
   10.3312   -0.9050    0.0000 C   0  0  0  0  0  0  0  0  0  0  0  0
   11.1972   -1.4050    0.0000 C   0  0  0  0  0  0  0  0  0  0  0  0
    6.5380    0.9050    0.0000 H   0  0  0  0  0  0  0  0  0  0  0  0
    4.7365   -0.3799    0.0000 H   0  0  0  0  0  0  0  0  0  0  0  0
    5.5335   -0.3799    0.0000 H   0  0  0  0  0  0  0  0  0  0  0  0
    7.7331   -0.7850    0.0000 H   0  0  0  0  0  0  0  0  0  0  0  0
    6.5380    1.9050    0.0000 H   0  0  0  0  0  0  0  0  0  0  0  0
    6.3301   -1.2150    0.0000 H   0  0  0  0  0  0  0  0  0  0  0  0
    4.6675    1.0700    0.0000 H   0  0  0  0  0  0  0  0  0  0  0  0
    3.8705    1.0700    0.0000 H   0  0  0  0  0  0  0  0  0  0  0  0
    7.9451   -2.9876    0.0000 H   0  0  0  0  0  0  0  0  0  0  0  0
    8.3437   -2.2973    0.0000 H   0  0  0  0  0  0  0  0  0  0  0  0
    5.1350    3.7150    0.0000 H   0  0  0  0  0  0  0  0  0  0  0  0
    9.4651   -2.0250    0.0000 H   0  0  0  0  0  0  0  0  0  0  0  0
    6.3110    3.0581    0.0000 H   0  0  0  0  0  0  0  0  0  0  0  0
    6.5380    3.9050    0.0000 H   0  0  0  0  0  0  0  0  0  0  0  0
    5.6910    4.1319    0.0000 H   0  0  0  0  0  0  0  0  0  0  0  0
    4.2690    4.2150    0.0000 H   0  0  0  0  0  0  0  0  0  0  0  0
    3.7320    3.2850    0.0000 H   0  0  0  0  0  0  0  0  0  0  0  0
   10.7297   -0.4301    0.0000 H   0  0  0  0  0  0  0  0  0  0  0  0
    9.9326   -0.4301    0.0000 H   0  0  0  0  0  0  0  0  0  0  0  0
    2.0000    0.2850    0.0000 H   0  0  0  0  0  0  0  0  0  0  0  0
    6.3301   -4.2150    0.0000 H   0  0  0  0  0  0  0  0  0  0  0  0
   12.6002   -1.2150    0.0000 H   0  0  0  0  0  0  0  0  0  0  0  0
  1 17  2  0  0  0  0
  2 20  2  0  0  0  0
  3 21  2  0  0  0  0
  4 23  1  0  0  0  0
  4 47  1  0  0  0  0
  5 24  1  0  0  0  0
  5 48  1  0  0  0  0
  6 23  2  0  0  0  0
  7 24  2  0  0  0  0
  8 27  1  0  0  0  0
  8 49  1  0  0  0  0
  9 27  2  0  0  0  0
 14 10  1  6  0  0  0
 10 20  1  0  0  0  0
 10 32  1  0  0  0  0
 16 11  1  6  0  0  0
 11 17  1  0  0  0  0
 11 33  1  0  0  0  0
 12 21  1  0  0  0  0
 12 26  1  0  0  0  0
 12 39  1  0  0  0  0
 22 13  1  1  0  0  0
 13 43  1  0  0  0  0
 13 44  1  0  0  0  0
 14 15  1  0  0  0  0
 14 17  1  0  0  0  0
 14 28  1  0  0  0  0
 15 18  1  0  0  0  0
 15 29  1  0  0  0  0
 15 30  1  0  0  0  0
 16 19  1  0  0  0  0
 16 21  1  0  0  0  0
 16 31  1  0  0  0  0
 18 23  1  0  0  0  0
 18 34  1  0  0  0  0
 18 35  1  0  0  0  0
 19 24  1  0  0  0  0
 19 36  1  0  0  0  0
 19 37  1  0  0  0  0
 20 22  1  0  0  0  0
 22 25  1  0  0  0  0
 22 38  1  0  0  0  0
 25 40  1  0  0  0  0
 25 41  1  0  0  0  0
 25 42  1  0  0  0  0
 26 27  1  0  0  0  0
 26 45  1  0  0  0  0
 26 46  1  0  0  0  0
M  END
> <PUBCHEM_COMPOUND_CID>
219042

> <PUBCHEM_COMPOUND_CANONICALIZED>
1

> <PUBCHEM_CACTVS_COMPLEXITY>
607

> <PUBCHEM_CACTVS_HBOND_ACCEPTOR>
10

> <PUBCHEM_CACTVS_HBOND_DONOR>
7

> <PUBCHEM_CACTVS_ROTATABLE_BOND>
12

> <PUBCHEM_CACTVS_SUBSKEYS>
AAADceBzvAAAAAAAAAAAAAAAAAAAAAAAAAAAAAAAAAAAAAAAAAAAHgAQCAAACCjBgAQCCALAAgAIAAGQGAAAAAAAAAAAAIGIAAACQBoAgCAUQAAGFgCQAAC/FwIAAAAAAAAAAAAAAAAAAAAAAAAAAAAAAA==

> <PUBCHEM_IUPAC_OPENEYE_NAME>
(4S)-4-[[(2S)-2-aminopropanoyl]amino]-5-[[(1S)-1-(carboxymethyl)-2-(carboxymethylamino)-2-oxo-ethyl]amino]-5-oxo-pentanoic acid

> <PUBCHEM_IUPAC_CAS_NAME>
(4S)-4-[[(2S)-2-amino-1-oxopropyl]amino]-5-[[(2S)-3-carboxy-1-(carboxymethylamino)-1-oxopropan-2-yl]amino]-5-oxopentanoic acid

> <PUBCHEM_IUPAC_NAME_MARKUP>
(4<I>S</I>)-4-[[(2<I>S</I>)-2-aminopropanoyl]amino]-5-[[(2<I>S</I>)-3-carboxy-1-(carboxymethylamino)-1-oxopropan-2-yl]amino]-5-oxopentanoic acid

> <PUBCHEM_IUPAC_NAME>
(4S)-4-[[(2S)-2-aminopropanoyl]amino]-5-[[(2S)-3-carboxy-1-(carboxymethylamino)-1-oxopropan-2-yl]amino]-5-oxopentanoic acid

> <PUBCHEM_IUPAC_SYSTEMATIC_NAME>
(4S)-4-[[(2S)-2-azanylpropanoyl]amino]-5-[[(2S)-1-(2-hydroxy-2-oxoethylamino)-4-oxidanyl-1,4-bis(oxidanylidene)butan-2-yl]amino]-5-oxidanylidene-pentanoic acid

> <PUBCHEM_IUPAC_TRADITIONAL_NAME>
(4S)-4-[[(2S)-2-aminopropanoyl]amino]-5-[[(1S)-1-(carboxymethyl)-2-(carboxymethylamino)-2-keto-ethyl]amino]-5-keto-valeric acid

> <PUBCHEM_IUPAC_INCHI>
InChI=1S/C14H22N4O9/c1-6(15)12(25)17-7(2-3-9(19)20)14(27)18-8(4-10(21)22)13(26)16-5-11(23)24/h6-8H,2-5,15H2,1H3,(H,16,26)(H,17,25)(H,18,27)(H,19,20)(H,21,22)(H,23,24)/t6-,7-,8-/m0/s1

> <PUBCHEM_IUPAC_INCHIKEY>
HGHOBRRUMWJWCU-FXQIFTODSA-N

> <PUBCHEM_XLOGP3_AA>
-5.5

> <PUBCHEM_EXACT_MASS>
390.13867829

> <PUBCHEM_MOLECULAR_FORMULA>
C14H22N4O9

> <PUBCHEM_MOLECULAR_WEIGHT>
390.35

> <PUBCHEM_SMILES>
C[C@@H](C(=O)N[C@@H](CCC(=O)O)C(=O)N[C@@H](CC(=O)O)C(=O)NCC(=O)O)N

> <PUBCHEM_CONNECTIVITY_SMILES>
CC(C(=O)NC(CCC(=O)O)C(=O)NC(CC(=O)O)C(=O)NCC(=O)O)N

> <PUBCHEM_CACTVS_TPSA>
225

> <PUBCHEM_MONOISOTOPIC_WEIGHT>
390.13867829

> <PUBCHEM_TOTAL_CHARGE>
0

> <PUBCHEM_HEAVY_ATOM_COUNT>
27

> <PUBCHEM_ATOM_DEF_STEREO_COUNT>
3

> <PUBCHEM_ATOM_UDEF_STEREO_COUNT>
0

> <PUBCHEM_BOND_DEF_STEREO_COUNT>
0

> <PUBCHEM_BOND_UDEF_STEREO_COUNT>
0

> <PUBCHEM_ISOTOPIC_ATOM_COUNT>
0

> <PUBCHEM_COMPONENT_COUNT>
1

> <PUBCHEM_CACTVS_TAUTO_COUNT>
-1

> <PUBCHEM_COORDINATE_TYPE>
1
5
255

> <PUBCHEM_BONDANNOTATIONS>
14  10  6
16  11  6
22  13  5

$$$$
