378611
  -OEChem-11132518582D

 49 48  0     1  0  0  0  0  0999 V2000
    5.1166    0.0000    0.0000 Cu  0  0  0  0  0  0  0  0  0  0  0  0
    5.1370    6.3499    0.0000 O   0  0  0  0  0  0  0  0  0  0  0  0
    3.5622    3.1064    0.0000 O   0  0  0  0  0  0  0  0  0  0  0  0
    5.2564    2.7463    0.0000 O   0  0  0  0  0  0  0  0  0  0  0  0
    5.3449    7.3281    0.0000 O   0  0  0  0  0  0  0  0  0  0  0  0
    5.6723    4.7026    0.0000 N   0  0  0  0  0  0  0  0  0  0  0  0
    7.0391    6.9680    0.0000 N   0  0  0  0  0  0  0  0  0  0  0  0
    9.3344    5.0419    0.0000 N   0  0  0  0  0  0  0  0  0  0  0  0
    0.5897    5.7830    0.0000 N   0  0  0  0  0  0  0  0  0  0  0  0
    9.8344    6.5807    0.0000 N   0  0  0  0  0  0  0  0  0  0  0  0
    5.7608    9.2844    0.0000 N   0  0  0  0  0  0  0  0  0  0  0  0
    3.9781    5.0628    0.0000 C   0  0  0  0  0  0  0  0  0  0  0  0
    4.7212    4.3936    0.0000 C   0  0  3  0  0  0  0  0  0  0  0  0
    3.0270    4.7537    0.0000 C   0  0  0  0  0  0  0  0  0  0  0  0
    6.8312    5.9898    0.0000 C   0  0  3  0  0  0  0  0  0  0  0  0
    2.2839    5.4229    0.0000 C   0  0  0  0  0  0  0  0  0  0  0  0
    7.5744    5.3207    0.0000 C   0  0  0  0  0  0  0  0  0  0  0  0
    5.8802    5.6808    0.0000 C   0  0  0  0  0  0  0  0  0  0  0  0
    1.3328    5.1138    0.0000 C   0  0  0  0  0  0  0  0  0  0  0  0
    4.5133    3.4155    0.0000 C   0  0  0  0  0  0  0  0  0  0  0  0
    8.5254    5.6297    0.0000 C   0  0  0  0  0  0  0  0  0  0  0  0
    6.2960    7.6371    0.0000 C   0  0  0  0  0  0  0  0  0  0  0  0
    8.8344    6.5807    0.0000 C   0  0  0  0  0  0  0  0  0  0  0  0
    6.5039    8.6152    0.0000 C   0  0  0  0  0  0  0  0  0  0  0  0
   10.1435    5.6297    0.0000 C   0  0  0  0  0  0  0  0  0  0  0  0
    4.4666    5.4445    0.0000 H   0  0  0  0  0  0  0  0  0  0  0  0
    3.6870    5.6102    0.0000 H   0  0  0  0  0  0  0  0  0  0  0  0
    5.1819    3.9788    0.0000 H   0  0  0  0  0  0  0  0  0  0  0  0
    2.5384    4.3720    0.0000 H   0  0  0  0  0  0  0  0  0  0  0  0
    3.3181    4.2063    0.0000 H   0  0  0  0  0  0  0  0  0  0  0  0
    7.4209    6.1814    0.0000 H   0  0  0  0  0  0  0  0  0  0  0  0
    2.7724    5.8046    0.0000 H   0  0  0  0  0  0  0  0  0  0  0  0
    1.9928    5.9703    0.0000 H   0  0  0  0  0  0  0  0  0  0  0  0
    6.1330    4.2878    0.0000 H   0  0  0  0  0  0  0  0  0  0  0  0
    7.0858    4.9390    0.0000 H   0  0  0  0  0  0  0  0  0  0  0  0
    7.8654    4.7732    0.0000 H   0  0  0  0  0  0  0  0  0  0  0  0
    0.8442    4.7321    0.0000 H   0  0  0  0  0  0  0  0  0  0  0  0
    1.6239    4.5664    0.0000 H   0  0  0  0  0  0  0  0  0  0  0  0
    7.6288    7.1595    0.0000 H   0  0  0  0  0  0  0  0  0  0  0  0
    9.3344    4.4219    0.0000 H   0  0  0  0  0  0  0  0  0  0  0  0
    8.4700    7.0823    0.0000 H   0  0  0  0  0  0  0  0  0  0  0  0
    0.0000    5.5914    0.0000 H   0  0  0  0  0  0  0  0  0  0  0  0
    0.7186    6.3894    0.0000 H   0  0  0  0  0  0  0  0  0  0  0  0
    7.0788    8.3830    0.0000 H   0  0  0  0  0  0  0  0  0  0  0  0
    6.8325    9.1410    0.0000 H   0  0  0  0  0  0  0  0  0  0  0  0
   10.7331    5.4381    0.0000 H   0  0  0  0  0  0  0  0  0  0  0  0
    3.4333    2.5000    0.0000 H   0  0  0  0  0  0  0  0  0  0  0  0
    5.8897    9.8908    0.0000 H   0  0  0  0  0  0  0  0  0  0  0  0
    5.1711    9.0928    0.0000 H   0  0  0  0  0  0  0  0  0  0  0  0
  2 18  2  0  0  0  0
  3 20  1  0  0  0  0
  3 47  1  0  0  0  0
  4 20  2  0  0  0  0
  5 22  2  0  0  0  0
  6 13  1  0  0  0  0
  6 18  1  0  0  0  0
  6 34  1  0  0  0  0
  7 15  1  0  0  0  0
  7 22  1  0  0  0  0
  7 39  1  0  0  0  0
  8 21  1  0  0  0  0
  8 25  1  0  0  0  0
  8 40  1  0  0  0  0
  9 19  1  0  0  0  0
  9 42  1  0  0  0  0
  9 43  1  0  0  0  0
 10 23  1  0  0  0  0
 10 25  2  0  0  0  0
 11 24  1  0  0  0  0
 11 48  1  0  0  0  0
 11 49  1  0  0  0  0
 12 13  1  0  0  0  0
 12 14  1  0  0  0  0
 12 26  1  0  0  0  0
 12 27  1  0  0  0  0
 13 20  1  0  0  0  0
 13 28  1  0  0  0  0
 14 16  1  0  0  0  0
 14 29  1  0  0  0  0
 14 30  1  0  0  0  0
 15 17  1  0  0  0  0
 15 18  1  0  0  0  0
 15 31  1  0  0  0  0
 16 19  1  0  0  0  0
 16 32  1  0  0  0  0
 16 33  1  0  0  0  0
 17 21  1  0  0  0  0
 17 35  1  0  0  0  0
 17 36  1  0  0  0  0
 19 37  1  0  0  0  0
 19 38  1  0  0  0  0
 21 23  2  0  0  0  0
 22 24  1  0  0  0  0
 23 41  1  0  0  0  0
 24 44  1  0  0  0  0
 24 45  1  0  0  0  0
 25 46  1  0  0  0  0
M  END
> <PUBCHEM_COMPOUND_CID>
378611

> <PUBCHEM_COMPOUND_CANONICALIZED>
1

> <PUBCHEM_CACTVS_COMPLEXITY>
433

> <PUBCHEM_CACTVS_HBOND_ACCEPTOR>
7

> <PUBCHEM_CACTVS_HBOND_DONOR>
6

> <PUBCHEM_CACTVS_ROTATABLE_BOND>
11

> <PUBCHEM_CACTVS_SUBSKEYS>
AAADceBzuAAAAAAEAAAAAAAAAAAAAWAAAAAAAAAAAAAAAAABgAAAHgAQCAAACCjBlgQtmBbJkgCoARX3fAAAgC2xEqABUYG4cAiCaBJA2SGUQAAMlgLQQCGcSQAAAAAAAAAAAAAAAAAAAAAAAAAAAAAAAA==

> <PUBCHEM_IUPAC_OPENEYE_NAME>
6-amino-2-[[2-[(2-aminoacetyl)amino]-3-(1H-imidazol-5-yl)propanoyl]amino]hexanoic acid;copper

> <PUBCHEM_IUPAC_CAS_NAME>
6-amino-2-[[2-[(2-amino-1-oxoethyl)amino]-3-(1H-imidazol-5-yl)-1-oxopropyl]amino]hexanoic acid;copper

> <PUBCHEM_IUPAC_NAME_MARKUP>
6-amino-2-[[2-[(2-aminoacetyl)amino]-3-(1<I>H</I>-imidazol-5-yl)propanoyl]amino]hexanoic acid;copper

> <PUBCHEM_IUPAC_NAME>
6-amino-2-[[2-[(2-aminoacetyl)amino]-3-(1H-imidazol-5-yl)propanoyl]amino]hexanoic acid;copper

> <PUBCHEM_IUPAC_SYSTEMATIC_NAME>
6-azanyl-2-[[2-(2-azanylethanoylamino)-3-(1H-imidazol-5-yl)propanoyl]amino]hexanoic acid;copper

> <PUBCHEM_IUPAC_TRADITIONAL_NAME>
6-amino-2-[[2-(glycylamino)-3-(1H-imidazol-5-yl)propanoyl]amino]hexanoic acid;copper

> <PUBCHEM_IUPAC_INCHI>
InChI=1S/C14H24N6O4.Cu/c15-4-2-1-3-10(14(23)24)20-13(22)11(19-12(21)6-16)5-9-7-17-8-18-9;/h7-8,10-11H,1-6,15-16H2,(H,17,18)(H,19,21)(H,20,22)(H,23,24);

> <PUBCHEM_IUPAC_INCHIKEY>
DIWZQABMLHSNJR-UHFFFAOYSA-N

> <PUBCHEM_EXACT_MASS>
403.115500

> <PUBCHEM_MOLECULAR_FORMULA>
C14H24CuN6O4

> <PUBCHEM_MOLECULAR_WEIGHT>
403.92

> <PUBCHEM_SMILES>
C1=C(NC=N1)CC(C(=O)NC(CCCCN)C(=O)O)NC(=O)CN.[Cu]

> <PUBCHEM_CONNECTIVITY_SMILES>
C1=C(NC=N1)CC(C(=O)NC(CCCCN)C(=O)O)NC(=O)CN.[Cu]

> <PUBCHEM_CACTVS_TPSA>
176

> <PUBCHEM_MONOISOTOPIC_WEIGHT>
403.115500

> <PUBCHEM_TOTAL_CHARGE>
0

> <PUBCHEM_HEAVY_ATOM_COUNT>
25

> <PUBCHEM_ATOM_DEF_STEREO_COUNT>
0

> <PUBCHEM_ATOM_UDEF_STEREO_COUNT>
2

> <PUBCHEM_BOND_DEF_STEREO_COUNT>
0

> <PUBCHEM_BOND_UDEF_STEREO_COUNT>
0

> <PUBCHEM_ISOTOPIC_ATOM_COUNT>
0

> <PUBCHEM_COMPONENT_COUNT>
2

> <PUBCHEM_CACTVS_TAUTO_COUNT>
-1

> <PUBCHEM_COORDINATE_TYPE>
1
5
255

> <PUBCHEM_BONDANNOTATIONS>
10  23  8
10  25  8
13  12  3
15  17  3
21  23  8
8  21  8
8  25  8

$$$$
