73587
  -OEChem-12202520373D

 48 48  0     1  0  0  0  0  0999 V2000
    0.2074   -0.1149   -1.7436 O   0  0  0  0  0  0  0  0  0  0  0  0
    0.8678    4.2350    0.4274 O   0  0  0  0  0  0  0  0  0  0  0  0
    0.9231    2.7896    2.1759 O   0  0  0  0  0  0  0  0  0  0  0  0
   -1.3004   -1.9193    1.8965 O   0  0  0  0  0  0  0  0  0  0  0  0
    0.3296    0.7669    0.4021 N   0  0  0  0  0  0  0  0  0  0  0  0
   -0.1775   -2.4916   -0.0550 N   0  0  0  0  0  0  0  0  0  0  0  0
    4.0006   -0.5748   -1.5539 N   0  0  0  0  0  0  0  0  0  0  0  0
   -6.2764    0.8721   -1.1187 N   0  0  0  0  0  0  0  0  0  0  0  0
    4.9848    0.2797    0.2441 N   0  0  0  0  0  0  0  0  0  0  0  0
   -3.5077   -3.3074    1.0192 N   0  0  0  0  0  0  0  0  0  0  0  0
   -1.6390    2.2528    0.2803 C   0  0  0  0  0  0  0  0  0  0  0  0
   -0.1294    2.0958    0.0898 C   0  0  1  0  0  0  0  0  0  0  0  0
   -2.4950    1.3710   -0.6378 C   0  0  0  0  0  0  0  0  0  0  0  0
    0.9146   -1.5589    0.0704 C   0  0  1  0  0  0  0  0  0  0  0  0
   -4.0005    1.5933   -0.4586 C   0  0  0  0  0  0  0  0  0  0  0  0
    2.1855   -2.0650   -0.6227 C   0  0  0  0  0  0  0  0  0  0  0  0
    0.4622   -0.2401   -0.5476 C   0  0  0  0  0  0  0  0  0  0  0  0
   -4.8490    0.6690   -1.3349 C   0  0  0  0  0  0  0  0  0  0  0  0
    3.3404   -1.1020   -0.4799 C   0  0  0  0  0  0  0  0  0  0  0  0
    0.6151    3.0368    1.0171 C   0  0  0  0  0  0  0  0  0  0  0  0
   -1.2041   -2.5967    0.8755 C   0  0  0  0  0  0  0  0  0  0  0  0
    3.9660   -0.5603    0.6183 C   0  0  0  0  0  0  0  0  0  0  0  0
   -2.1970   -3.6795    0.5061 C   0  0  0  0  0  0  0  0  0  0  0  0
    4.9791    0.2483   -1.0700 C   0  0  0  0  0  0  0  0  0  0  0  0
   -1.9114    3.3034    0.1150 H   0  0  0  0  0  0  0  0  0  0  0  0
   -1.9018    2.0322    1.3238 H   0  0  0  0  0  0  0  0  0  0  0  0
    0.1523    2.3227   -0.9451 H   0  0  0  0  0  0  0  0  0  0  0  0
   -2.2243    1.5644   -1.6827 H   0  0  0  0  0  0  0  0  0  0  0  0
   -2.2796    0.3155   -0.4375 H   0  0  0  0  0  0  0  0  0  0  0  0
    1.1175   -1.4246    1.1399 H   0  0  0  0  0  0  0  0  0  0  0  0
   -4.2392    2.6394   -0.6889 H   0  0  0  0  0  0  0  0  0  0  0  0
   -4.2615    1.4330    0.5954 H   0  0  0  0  0  0  0  0  0  0  0  0
    2.4814   -3.0298   -0.1916 H   0  0  0  0  0  0  0  0  0  0  0  0
    1.9902   -2.2494   -1.6875 H   0  0  0  0  0  0  0  0  0  0  0  0
    0.5321    0.5557    1.3752 H   0  0  0  0  0  0  0  0  0  0  0  0
   -0.2144   -3.0640   -0.8936 H   0  0  0  0  0  0  0  0  0  0  0  0
   -4.6161    0.8435   -2.3913 H   0  0  0  0  0  0  0  0  0  0  0  0
   -4.6054   -0.3760   -1.1135 H   0  0  0  0  0  0  0  0  0  0  0  0
    3.8036   -0.7571   -2.5290 H   0  0  0  0  0  0  0  0  0  0  0  0
    3.7358   -0.7304    1.6602 H   0  0  0  0  0  0  0  0  0  0  0  0
   -6.5233    1.8349   -1.3445 H   0  0  0  0  0  0  0  0  0  0  0  0
   -6.8034    0.2829   -1.7619 H   0  0  0  0  0  0  0  0  0  0  0  0
   -1.8638   -4.6259    0.9431 H   0  0  0  0  0  0  0  0  0  0  0  0
   -2.2548   -3.7940   -0.5807 H   0  0  0  0  0  0  0  0  0  0  0  0
    5.6472    0.7915   -1.7229 H   0  0  0  0  0  0  0  0  0  0  0  0
    1.3292    4.8512    1.0355 H   0  0  0  0  0  0  0  0  0  0  0  0
   -4.1805   -4.0361    0.7841 H   0  0  0  0  0  0  0  0  0  0  0  0
   -3.4788   -3.2701    2.0376 H   0  0  0  0  0  0  0  0  0  0  0  0
  1 17  2  0  0  0  0
  2 20  1  0  0  0  0
  2 46  1  0  0  0  0
  3 20  2  0  0  0  0
  4 21  2  0  0  0  0
  5 12  1  0  0  0  0
  5 17  1  0  0  0  0
  5 35  1  0  0  0  0
  6 14  1  0  0  0  0
  6 21  1  0  0  0  0
  6 36  1  0  0  0  0
  7 19  1  0  0  0  0
  7 24  1  0  0  0  0
  7 39  1  0  0  0  0
  8 18  1  0  0  0  0
  8 41  1  0  0  0  0
  8 42  1  0  0  0  0
  9 22  1  0  0  0  0
  9 24  2  0  0  0  0
 10 23  1  0  0  0  0
 10 47  1  0  0  0  0
 10 48  1  0  0  0  0
 11 12  1  0  0  0  0
 11 13  1  0  0  0  0
 11 25  1  0  0  0  0
 11 26  1  0  0  0  0
 12 20  1  0  0  0  0
 12 27  1  0  0  0  0
 13 15  1  0  0  0  0
 13 28  1  0  0  0  0
 13 29  1  0  0  0  0
 14 16  1  0  0  0  0
 14 17  1  0  0  0  0
 14 30  1  0  0  0  0
 15 18  1  0  0  0  0
 15 31  1  0  0  0  0
 15 32  1  0  0  0  0
 16 19  1  0  0  0  0
 16 33  1  0  0  0  0
 16 34  1  0  0  0  0
 18 37  1  0  0  0  0
 18 38  1  0  0  0  0
 19 22  2  0  0  0  0
 21 23  1  0  0  0  0
 22 40  1  0  0  0  0
 23 43  1  0  0  0  0
 23 44  1  0  0  0  0
 24 45  1  0  0  0  0
M  END
> <PUBCHEM_COMPOUND_CID>
73587

> <PUBCHEM_CONFORMER_RMSD>
1

> <PUBCHEM_CONFORMER_DIVERSEORDER>
1
39
22
9
48
41
3
12
26
13
17
20
31
60
44
51
35
55
38
42
23
33
19
46
50
56
27
36
34
2
30
37
52
21
45
10
49
25
6
14
47
28
54
58
7
11
18
16
8
15
57
40
24
29
5
59
43
4
32
53

> <PUBCHEM_MMFF94_PARTIAL_CHARGES>
31
1 -0.57
10 -0.99
12 0.36
14 0.36
16 0.18
17 0.57
18 0.27
19 -0.33
2 -0.65
20 0.66
21 0.57
22 0.08
23 0.33
24 0.04
3 -0.57
35 0.37
36 0.37
39 0.27
4 -0.57
40 0.15
41 0.36
42 0.36
45 0.15
46 0.5
47 0.36
48 0.36
5 -0.73
6 -0.73
7 0.03
8 -0.99
9 -0.57

> <PUBCHEM_EFFECTIVE_ROTOR_COUNT>
13

> <PUBCHEM_PHARMACOPHORE_FEATURES>
14
1 1 acceptor
1 10 cation
1 10 donor
1 2 acceptor
1 3 acceptor
1 4 acceptor
1 5 donor
1 6 donor
1 7 donor
1 8 cation
1 8 donor
3 2 3 20 anion
3 7 9 24 cation
5 7 9 19 22 24 rings

> <PUBCHEM_HEAVY_ATOM_COUNT>
24

> <PUBCHEM_ATOM_DEF_STEREO_COUNT>
2

> <PUBCHEM_ATOM_UDEF_STEREO_COUNT>
0

> <PUBCHEM_BOND_DEF_STEREO_COUNT>
0

> <PUBCHEM_BOND_UDEF_STEREO_COUNT>
0

> <PUBCHEM_ISOTOPIC_ATOM_COUNT>
0

> <PUBCHEM_COMPONENT_COUNT>
1

> <PUBCHEM_CACTVS_TAUTO_COUNT>
8

> <PUBCHEM_CONFORMER_ID>
00011F7300000003

> <PUBCHEM_MMFF94_ENERGY>
25.5129

> <PUBCHEM_FEATURE_SELFOVERLAP>
71.107

> <PUBCHEM_SHAPE_FINGERPRINT>
10090160 65 18189898608475141188
10675989 125 17035274893267255581
108634 29 18340774753938365782
11578080 2 18043815505171105836
11680986 33 18199178675624092024
12035758 1 18411699910986496865
12403260 363 17977101258919433986
12788726 201 18270117890638168184
13052359 8 18187087256322844051
13149001 5 18410851096647416325
14178342 30 17040902171622394346
14787075 74 18340200791514516245
173720 79 17822000974276120410
17492 54 18334859376890582973
23419403 2 17901931260716291030
3178227 256 18335995177678296641
5171179 24 18055065725167642227
5486654 2 18336831883549838805
59755656 520 18041559131549689390

> <PUBCHEM_SHAPE_MULTIPOLES>
440.55
9.24
4.66
1.46
2.56
0.19
0.19
-0.51
-4.49
2.8
2.49
0.1
-0.19
1.76

> <PUBCHEM_SHAPE_SELFOVERLAP>
880.069

> <PUBCHEM_SHAPE_VOLUME>
258.8

> <PUBCHEM_COORDINATE_TYPE>
2
5
10

$$$$
