6918245
  -OEChem-12272517252D

115119  0     1  0  0  0  0  0999 V2000
   10.3312   -3.6708    0.0000 O   0  0  0  0  0  0  0  0  0  0  0  0
    6.8671   -2.6708    0.0000 O   0  0  0  0  0  0  0  0  0  0  0  0
   12.9292   -1.1708    0.0000 O   0  0  0  0  0  0  0  0  0  0  0  0
   12.0632    2.3292    0.0000 O   0  0  0  0  0  0  0  0  0  0  0  0
    7.7331    0.8292    0.0000 O   0  0  0  0  0  0  0  0  0  0  0  0
   12.0632    3.3292    0.0000 O   0  0  0  0  0  0  0  0  0  0  0  0
    9.4651   -2.1708    0.0000 N   0  0  0  0  0  0  0  0  0  0  0  0
   11.1972   -1.1708    0.0000 N   0  0  0  0  0  0  0  0  0  0  0  0
    7.7331   -1.1708    0.0000 N   0  0  0  0  0  0  0  0  0  0  0  0
   11.5632   -5.2006    0.0000 N   0  0  0  0  0  0  0  0  0  0  0  0
   12.9292    0.8292    0.0000 N   0  0  0  0  0  0  0  0  0  0  0  0
   13.7953    3.3292    0.0000 N   0  0  0  0  0  0  0  0  0  0  0  0
    6.0010    0.8292    0.0000 N   0  0  0  0  0  0  0  0  0  0  0  0
    2.5369   -1.1708    0.0000 N   0  0  0  0  0  0  0  0  0  0  0  0
   12.0632    5.3292    0.0000 N   0  0  0  0  0  0  0  0  0  0  0  0
   11.1972   -2.1708    0.0000 C   0  0  1  0  0  0  0  0  0  0  0  0
   12.0632   -2.6708    0.0000 C   0  0  0  0  0  0  0  0  0  0  0  0
    8.5991   -2.6708    0.0000 C   0  0  2  0  0  0  0  0  0  0  0  0
   12.0632   -3.6708    0.0000 C   0  0  0  0  0  0  0  0  0  0  0  0
   10.3312   -2.6708    0.0000 C   0  0  0  0  0  0  0  0  0  0  0  0
    6.8671   -0.6708    0.0000 C   0  0  1  0  0  0  0  0  0  0  0  0
    8.5991   -3.6708    0.0000 C   0  0  0  0  0  0  0  0  0  0  0  0
    6.0010   -1.1708    0.0000 C   0  0  0  0  0  0  0  0  0  0  0  0
   12.8679   -4.2544    0.0000 C   0  0  0  0  0  0  0  0  0  0  0  0
    7.7331   -2.1708    0.0000 C   0  0  0  0  0  0  0  0  0  0  0  0
    5.1350   -0.6708    0.0000 C   0  0  0  0  0  0  0  0  0  0  0  0
   12.0632    0.3292    0.0000 C   0  0  2  0  0  0  0  0  0  0  0  0
   12.5573   -5.2049    0.0000 C   0  0  0  0  0  0  0  0  0  0  0  0
   11.2585   -4.2544    0.0000 C   0  0  0  0  0  0  0  0  0  0  0  0
   12.0632   -0.6708    0.0000 C   0  0  0  0  0  0  0  0  0  0  0  0
   13.7953    2.3292    0.0000 C   0  0  2  0  0  0  0  0  0  0  0  0
    4.2690   -1.1708    0.0000 C   0  0  0  0  0  0  0  0  0  0  0  0
    7.7331   -4.1708    0.0000 C   0  0  0  0  0  0  0  0  0  0  0  0
   14.6613    1.8292    0.0000 C   0  0  0  0  0  0  0  0  0  0  0  0
   12.9292    1.8292    0.0000 C   0  0  0  0  0  0  0  0  0  0  0  0
   13.8465   -4.0482    0.0000 C   0  0  0  0  0  0  0  0  0  0  0  0
    6.8671    0.3292    0.0000 C   0  0  0  0  0  0  0  0  0  0  0  0
   11.1972    0.8292    0.0000 C   0  0  0  0  0  0  0  0  0  0  0  0
   13.2251   -5.9492    0.0000 C   0  0  0  0  0  0  0  0  0  0  0  0
   15.5273    2.3292    0.0000 C   0  0  0  0  0  0  0  0  0  0  0  0
    3.4030   -0.6708    0.0000 C   0  0  0  0  0  0  0  0  0  0  0  0
   14.5143   -4.7925    0.0000 C   0  0  0  0  0  0  0  0  0  0  0  0
    7.7331   -5.1708    0.0000 C   0  0  0  0  0  0  0  0  0  0  0  0
    6.8671   -3.6708    0.0000 C   0  0  0  0  0  0  0  0  0  0  0  0
   14.2036   -5.7430    0.0000 C   0  0  0  0  0  0  0  0  0  0  0  0
   16.3933    1.8292    0.0000 C   0  0  0  0  0  0  0  0  0  0  0  0
   15.5273    3.3292    0.0000 C   0  0  0  0  0  0  0  0  0  0  0  0
   17.2594    2.3292    0.0000 C   0  0  0  0  0  0  0  0  0  0  0  0
   12.9292    3.8292    0.0000 C   0  0  0  0  0  0  0  0  0  0  0  0
   17.2594    3.3292    0.0000 C   0  0  0  0  0  0  0  0  0  0  0  0
   12.9292    4.8292    0.0000 C   0  0  1  0  0  0  0  0  0  0  0  0
    6.8671   -5.6708    0.0000 C   0  0  0  0  0  0  0  0  0  0  0  0
    6.0010   -4.1708    0.0000 C   0  0  0  0  0  0  0  0  0  0  0  0
   16.3933    3.8292    0.0000 C   0  0  0  0  0  0  0  0  0  0  0  0
    6.0010   -5.1708    0.0000 C   0  0  0  0  0  0  0  0  0  0  0  0
   18.1533    1.7946    0.0000 C   0  0  0  0  0  0  0  0  0  0  0  0
   18.1533    3.8639    0.0000 C   0  0  0  0  0  0  0  0  0  0  0  0
   13.7953    5.3292    0.0000 C   0  0  0  0  0  0  0  0  0  0  0  0
   19.0594    2.3084    0.0000 C   0  0  0  0  0  0  0  0  0  0  0  0
   19.0594    3.3500    0.0000 C   0  0  0  0  0  0  0  0  0  0  0  0
   10.6603   -1.8608    0.0000 H   0  0  0  0  0  0  0  0  0  0  0  0
   12.6738   -2.7785    0.0000 H   0  0  0  0  0  0  0  0  0  0  0  0
   12.2753   -2.0882    0.0000 H   0  0  0  0  0  0  0  0  0  0  0  0
    8.5991   -2.0508    0.0000 H   0  0  0  0  0  0  0  0  0  0  0  0
    7.4040   -0.3608    0.0000 H   0  0  0  0  0  0  0  0  0  0  0  0
    8.8112   -4.2534    0.0000 H   0  0  0  0  0  0  0  0  0  0  0  0
    9.2097   -3.5631    0.0000 H   0  0  0  0  0  0  0  0  0  0  0  0
    9.4651   -1.5508    0.0000 H   0  0  0  0  0  0  0  0  0  0  0  0
    5.6025   -1.6457    0.0000 H   0  0  0  0  0  0  0  0  0  0  0  0
    6.3996   -1.6457    0.0000 H   0  0  0  0  0  0  0  0  0  0  0  0
   10.6603   -0.8608    0.0000 H   0  0  0  0  0  0  0  0  0  0  0  0
    5.5335   -0.1958    0.0000 H   0  0  0  0  0  0  0  0  0  0  0  0
    4.7365   -0.1958    0.0000 H   0  0  0  0  0  0  0  0  0  0  0  0
    8.2700   -0.8608    0.0000 H   0  0  0  0  0  0  0  0  0  0  0  0
   12.6002    0.0192    0.0000 H   0  0  0  0  0  0  0  0  0  0  0  0
   10.6692   -4.0618    0.0000 H   0  0  0  0  0  0  0  0  0  0  0  0
   14.3322    2.6392    0.0000 H   0  0  0  0  0  0  0  0  0  0  0  0
    3.8705   -1.6457    0.0000 H   0  0  0  0  0  0  0  0  0  0  0  0
    4.6675   -1.6457    0.0000 H   0  0  0  0  0  0  0  0  0  0  0  0
   11.1971   -5.7009    0.0000 H   0  0  0  0  0  0  0  0  0  0  0  0
   14.2628    1.3543    0.0000 H   0  0  0  0  0  0  0  0  0  0  0  0
   15.0598    1.3543    0.0000 H   0  0  0  0  0  0  0  0  0  0  0  0
   13.4662    0.5192    0.0000 H   0  0  0  0  0  0  0  0  0  0  0  0
   14.0391   -3.4589    0.0000 H   0  0  0  0  0  0  0  0  0  0  0  0
   11.5072    1.3662    0.0000 H   0  0  0  0  0  0  0  0  0  0  0  0
   10.6603    1.1392    0.0000 H   0  0  0  0  0  0  0  0  0  0  0  0
   10.8872    0.2923    0.0000 H   0  0  0  0  0  0  0  0  0  0  0  0
   13.0325   -6.5385    0.0000 H   0  0  0  0  0  0  0  0  0  0  0  0
    3.8015   -0.1958    0.0000 H   0  0  0  0  0  0  0  0  0  0  0  0
    3.0044   -0.1958    0.0000 H   0  0  0  0  0  0  0  0  0  0  0  0
   14.3322    3.6392    0.0000 H   0  0  0  0  0  0  0  0  0  0  0  0
   15.1210   -4.6646    0.0000 H   0  0  0  0  0  0  0  0  0  0  0  0
    8.2700   -5.4808    0.0000 H   0  0  0  0  0  0  0  0  0  0  0  0
    6.8671   -3.0508    0.0000 H   0  0  0  0  0  0  0  0  0  0  0  0
   14.6177   -6.2045    0.0000 H   0  0  0  0  0  0  0  0  0  0  0  0
   16.3933    1.2092    0.0000 H   0  0  0  0  0  0  0  0  0  0  0  0
   14.9904    3.6392    0.0000 H   0  0  0  0  0  0  0  0  0  0  0  0
    6.0010    1.4492    0.0000 H   0  0  0  0  0  0  0  0  0  0  0  0
    5.4641    0.5192    0.0000 H   0  0  0  0  0  0  0  0  0  0  0  0
   12.3923    4.5192    0.0000 H   0  0  0  0  0  0  0  0  0  0  0  0
    6.8671   -6.2908    0.0000 H   0  0  0  0  0  0  0  0  0  0  0  0
    5.4641   -3.8608    0.0000 H   0  0  0  0  0  0  0  0  0  0  0  0
   16.3933    4.4492    0.0000 H   0  0  0  0  0  0  0  0  0  0  0  0
    2.0000   -0.8608    0.0000 H   0  0  0  0  0  0  0  0  0  0  0  0
    2.5369   -1.7908    0.0000 H   0  0  0  0  0  0  0  0  0  0  0  0
    5.4641   -5.4808    0.0000 H   0  0  0  0  0  0  0  0  0  0  0  0
   18.1461    1.1746    0.0000 H   0  0  0  0  0  0  0  0  0  0  0  0
   18.1461    4.4838    0.0000 H   0  0  0  0  0  0  0  0  0  0  0  0
   14.1053    4.7923    0.0000 H   0  0  0  0  0  0  0  0  0  0  0  0
   14.3322    5.6392    0.0000 H   0  0  0  0  0  0  0  0  0  0  0  0
   13.4853    5.8662    0.0000 H   0  0  0  0  0  0  0  0  0  0  0  0
   19.5951    1.9963    0.0000 H   0  0  0  0  0  0  0  0  0  0  0  0
   19.5951    3.6621    0.0000 H   0  0  0  0  0  0  0  0  0  0  0  0
   12.0632    5.9492    0.0000 H   0  0  0  0  0  0  0  0  0  0  0  0
   11.5263    5.0192    0.0000 H   0  0  0  0  0  0  0  0  0  0  0  0
  1 20  2  0  0  0  0
  2 25  2  0  0  0  0
  3 30  2  0  0  0  0
  4 35  2  0  0  0  0
  5 37  2  0  0  0  0
  6 49  2  0  0  0  0
 18  7  1  6  0  0  0
  7 20  1  0  0  0  0
  7 68  1  0  0  0  0
 16  8  1  1  0  0  0
  8 30  1  0  0  0  0
  8 71  1  0  0  0  0
 21  9  1  1  0  0  0
  9 25  1  0  0  0  0
  9 74  1  0  0  0  0
 10 28  1  0  0  0  0
 10 29  1  0  0  0  0
 10 80  1  0  0  0  0
 27 11  1  6  0  0  0
 11 35  1  0  0  0  0
 11 83  1  0  0  0  0
 31 12  1  6  0  0  0
 12 49  1  0  0  0  0
 12 91  1  0  0  0  0
 13 37  1  0  0  0  0
 13 98  1  0  0  0  0
 13 99  1  0  0  0  0
 14 41  1  0  0  0  0
 14104  1  0  0  0  0
 14105  1  0  0  0  0
 51 15  1  6  0  0  0
 15114  1  0  0  0  0
 15115  1  0  0  0  0
 16 17  1  0  0  0  0
 16 20  1  0  0  0  0
 16 61  1  0  0  0  0
 17 19  1  0  0  0  0
 17 62  1  0  0  0  0
 17 63  1  0  0  0  0
 18 22  1  0  0  0  0
 18 25  1  0  0  0  0
 18 64  1  0  0  0  0
 19 24  1  0  0  0  0
 19 29  2  0  0  0  0
 21 23  1  0  0  0  0
 21 37  1  0  0  0  0
 21 65  1  0  0  0  0
 22 33  1  0  0  0  0
 22 66  1  0  0  0  0
 22 67  1  0  0  0  0
 23 26  1  0  0  0  0
 23 69  1  0  0  0  0
 23 70  1  0  0  0  0
 24 28  1  0  0  0  0
 24 36  2  0  0  0  0
 26 32  1  0  0  0  0
 26 72  1  0  0  0  0
 26 73  1  0  0  0  0
 27 30  1  0  0  0  0
 27 38  1  0  0  0  0
 27 75  1  0  0  0  0
 28 39  2  0  0  0  0
 29 76  1  0  0  0  0
 31 34  1  0  0  0  0
 31 35  1  0  0  0  0
 31 77  1  0  0  0  0
 32 41  1  0  0  0  0
 32 78  1  0  0  0  0
 32 79  1  0  0  0  0
 33 43  2  0  0  0  0
 33 44  1  0  0  0  0
 34 40  1  0  0  0  0
 34 81  1  0  0  0  0
 34 82  1  0  0  0  0
 36 42  1  0  0  0  0
 36 84  1  0  0  0  0
 38 85  1  0  0  0  0
 38 86  1  0  0  0  0
 38 87  1  0  0  0  0
 39 45  1  0  0  0  0
 39 88  1  0  0  0  0
 40 46  2  0  0  0  0
 40 47  1  0  0  0  0
 41 89  1  0  0  0  0
 41 90  1  0  0  0  0
 42 45  2  0  0  0  0
 42 92  1  0  0  0  0
 43 52  1  0  0  0  0
 43 93  1  0  0  0  0
 44 53  2  0  0  0  0
 44 94  1  0  0  0  0
 45 95  1  0  0  0  0
 46 48  1  0  0  0  0
 46 96  1  0  0  0  0
 47 54  2  0  0  0  0
 47 97  1  0  0  0  0
 48 50  1  0  0  0  0
 48 56  2  0  0  0  0
 49 51  1  0  0  0  0
 50 54  1  0  0  0  0
 50 57  2  0  0  0  0
 51 58  1  0  0  0  0
 51100  1  0  0  0  0
 52 55  2  0  0  0  0
 52101  1  0  0  0  0
 53 55  1  0  0  0  0
 53102  1  0  0  0  0
 54103  1  0  0  0  0
 55106  1  0  0  0  0
 56 59  1  0  0  0  0
 56107  1  0  0  0  0
 57 60  1  0  0  0  0
 57108  1  0  0  0  0
 58109  1  0  0  0  0
 58110  1  0  0  0  0
 58111  1  0  0  0  0
 59 60  2  0  0  0  0
 59112  1  0  0  0  0
 60113  1  0  0  0  0
M  END
> <PUBCHEM_COMPOUND_CID>
6918245

> <PUBCHEM_COMPOUND_CANONICALIZED>
1

> <PUBCHEM_CACTVS_COMPLEXITY>
1440

> <PUBCHEM_CACTVS_HBOND_ACCEPTOR>
8

> <PUBCHEM_CACTVS_HBOND_DONOR>
9

> <PUBCHEM_CACTVS_ROTATABLE_BOND>
21

> <PUBCHEM_CACTVS_SUBSKEYS>
AAADcfB/+AAAAAAAAAAAAAAAAAAAAWAAAAAwYMGAAAAAAFjB9AAAHgAQAAAADCjBngQ+wPLJkACoAzV3VACCgCAxAiAI2aG4ZJgIYPLAkbGUIAhglgDIyAcYicCOwAACAAASAACAAAQAACQAAAAAAAAAAA==

> <PUBCHEM_IUPAC_OPENEYE_NAME>
(2S)-6-amino-2-[[(2R)-2-[[(2S)-2-[[(2S)-2-[[(2R)-2-[[(2R)-2-aminopropanoyl]amino]-3-(2-naphthyl)propanoyl]amino]propanoyl]amino]-3-(1H-indol-3-yl)propanoyl]amino]-3-phenyl-propanoyl]amino]hexanamide

> <PUBCHEM_IUPAC_CAS_NAME>
(2S)-6-amino-2-[[(2R)-2-[[(2S)-2-[[(2S)-2-[[(2R)-2-[[(2R)-2-amino-1-oxopropyl]amino]-3-(2-naphthalenyl)-1-oxopropyl]amino]-1-oxopropyl]amino]-3-(1H-indol-3-yl)-1-oxopropyl]amino]-1-oxo-3-phenylpropyl]amino]hexanamide

> <PUBCHEM_IUPAC_NAME_MARKUP>
(2<I>S</I>)-6-amino-2-[[(2<I>R</I>)-2-[[(2<I>S</I>)-2-[[(2<I>S</I>)-2-[[(2<I>R</I>)-2-[[(2<I>R</I>)-2-aminopropanoyl]amino]-3-naphthalen-2-ylpropanoyl]amino]propanoyl]amino]-3-(1<I>H</I>-indol-3-yl)propanoyl]amino]-3-phenylpropanoyl]amino]hexanamide

> <PUBCHEM_IUPAC_NAME>
(2S)-6-amino-2-[[(2R)-2-[[(2S)-2-[[(2S)-2-[[(2R)-2-[[(2R)-2-aminopropanoyl]amino]-3-naphthalen-2-ylpropanoyl]amino]propanoyl]amino]-3-(1H-indol-3-yl)propanoyl]amino]-3-phenylpropanoyl]amino]hexanamide

> <PUBCHEM_IUPAC_SYSTEMATIC_NAME>
(2S)-6-azanyl-2-[[(2R)-2-[[(2S)-2-[[(2S)-2-[[(2R)-2-[[(2R)-2-azanylpropanoyl]amino]-3-naphthalen-2-yl-propanoyl]amino]propanoyl]amino]-3-(1H-indol-3-yl)propanoyl]amino]-3-phenyl-propanoyl]amino]hexanamide

> <PUBCHEM_IUPAC_TRADITIONAL_NAME>
(2S)-6-amino-2-[[(2R)-2-[[(2S)-2-[[(2S)-2-[[(2R)-2-[[(2R)-2-aminopropanoyl]amino]-3-(2-naphthyl)propanoyl]amino]propanoyl]amino]-3-(1H-indol-3-yl)propanoyl]amino]-3-phenyl-propanoyl]amino]hexanamide

> <PUBCHEM_IUPAC_INCHI>
InChI=1S/C45H55N9O6/c1-27(47)41(56)52-38(24-30-19-20-31-14-6-7-15-32(31)22-30)43(58)50-28(2)42(57)53-39(25-33-26-49-35-17-9-8-16-34(33)35)45(60)54-37(23-29-12-4-3-5-13-29)44(59)51-36(40(48)55)18-10-11-21-46/h3-9,12-17,19-20,22,26-28,36-39,49H,10-11,18,21,23-25,46-47H2,1-2H3,(H2,48,55)(H,50,58)(H,51,59)(H,52,56)(H,53,57)(H,54,60)/t27-,28+,36+,37-,38-,39+/m1/s1

> <PUBCHEM_IUPAC_INCHIKEY>
HRNLPPBUBKMZMT-RDRUQFPZSA-N

> <PUBCHEM_XLOGP3>
2.5

> <PUBCHEM_EXACT_MASS>
817.42753051

> <PUBCHEM_MOLECULAR_FORMULA>
C45H55N9O6

> <PUBCHEM_MOLECULAR_WEIGHT>
818.0

> <PUBCHEM_SMILES>
C[C@H](C(=O)N[C@H](CC1=CC2=CC=CC=C2C=C1)C(=O)N[C@@H](C)C(=O)N[C@@H](CC3=CNC4=CC=CC=C43)C(=O)N[C@H](CC5=CC=CC=C5)C(=O)N[C@@H](CCCCN)C(=O)N)N

> <PUBCHEM_CONNECTIVITY_SMILES>
CC(C(=O)NC(CC1=CC2=CC=CC=C2C=C1)C(=O)NC(C)C(=O)NC(CC3=CNC4=CC=CC=C43)C(=O)NC(CC5=CC=CC=C5)C(=O)NC(CCCCN)C(=O)N)N

> <PUBCHEM_CACTVS_TPSA>
256

> <PUBCHEM_MONOISOTOPIC_WEIGHT>
817.42753051

> <PUBCHEM_TOTAL_CHARGE>
0

> <PUBCHEM_HEAVY_ATOM_COUNT>
60

> <PUBCHEM_ATOM_DEF_STEREO_COUNT>
6

> <PUBCHEM_ATOM_UDEF_STEREO_COUNT>
0

> <PUBCHEM_BOND_DEF_STEREO_COUNT>
0

> <PUBCHEM_BOND_UDEF_STEREO_COUNT>
0

> <PUBCHEM_ISOTOPIC_ATOM_COUNT>
0

> <PUBCHEM_COMPONENT_COUNT>
1

> <PUBCHEM_CACTVS_TAUTO_COUNT>
-1

> <PUBCHEM_COORDINATE_TYPE>
1
5
255

> <PUBCHEM_BONDANNOTATIONS>
10  28  8
10  29  8
27  11  6
31  12  6
51  15  6
19  24  8
19  29  8
24  28  8
24  36  8
28  39  8
33  43  8
33  44  8
36  42  8
39  45  8
40  46  8
40  47  8
42  45  8
43  52  8
44  53  8
46  48  8
47  54  8
48  50  8
48  56  8
50  54  8
50  57  8
52  55  8
53  55  8
56  59  8
57  60  8
59  60  8
18  7  6
16  8  5
21  9  5

$$$$
