9831659
  -OEChem-11132518582D

101104  0     1  0  0  0  0  0999 V2000
   11.1972    1.4050    0.0000 O   0  0  0  0  0  0  0  0  0  0  0  0
    8.5991    3.9050    0.0000 O   0  0  0  0  0  0  0  0  0  0  0  0
   10.3312   -2.0950    0.0000 O   0  0  0  0  0  0  0  0  0  0  0  0
   10.3312   -3.0950    0.0000 O   0  0  0  0  0  0  0  0  0  0  0  0
    7.7331    4.4050    0.0000 O   0  0  0  0  0  0  0  0  0  0  0  0
    9.4651    1.4050    0.0000 N   0  0  0  0  0  0  0  0  0  0  0  0
    9.4651   -0.5950    0.0000 N   0  0  0  0  0  0  0  0  0  0  0  0
    7.7331    2.4050    0.0000 N   0  0  0  0  0  0  0  0  0  0  0  0
    8.5991   -3.0950    0.0000 N   0  0  0  0  0  0  0  0  0  0  0  0
    9.4651   -5.5950    0.0000 N   0  0  0  0  0  0  0  0  0  0  0  0
    6.7625   -3.0895    0.0000 N   0  0  0  0  0  0  0  0  0  0  0  0
    6.0010    4.4050    0.0000 N   0  0  0  0  0  0  0  0  0  0  0  0
    2.5369    2.4050    0.0000 N   0  0  0  0  0  0  0  0  0  0  0  0
    5.2844   -2.4314    0.0000 N   0  0  0  0  0  0  0  0  0  0  0  0
   10.3312   -0.0950    0.0000 C   0  0  2  0  0  0  0  0  0  0  0  0
    9.4651    2.4050    0.0000 C   0  0  2  0  0  0  0  0  0  0  0  0
   11.1972   -0.5950    0.0000 C   0  0  0  0  0  0  0  0  0  0  0  0
    8.5991   -2.0950    0.0000 C   0  0  2  0  0  0  0  0  0  0  0  0
    6.8671    2.9050    0.0000 C   0  0  1  0  0  0  0  0  0  0  0  0
    6.0010    2.4050    0.0000 C   0  0  0  0  0  0  0  0  0  0  0  0
   10.3312    0.9050    0.0000 C   0  0  0  0  0  0  0  0  0  0  0  0
   10.3312    2.9050    0.0000 C   0  0  0  0  0  0  0  0  0  0  0  0
    8.5991    2.9050    0.0000 C   0  0  0  0  0  0  0  0  0  0  0  0
    5.1350    2.9050    0.0000 C   0  0  0  0  0  0  0  0  0  0  0  0
    9.4651   -1.5950    0.0000 C   0  0  0  0  0  0  0  0  0  0  0  0
    7.7331   -1.5950    0.0000 C   0  0  0  0  0  0  0  0  0  0  0  0
   12.0632   -0.0950    0.0000 C   0  0  0  0  0  0  0  0  0  0  0  0
    9.4651   -4.5950    0.0000 C   0  0  0  0  0  0  0  0  0  0  0  0
    4.2690    2.4050    0.0000 C   0  0  0  0  0  0  0  0  0  0  0  0
   10.3312    3.9050    0.0000 C   0  0  0  0  0  0  0  0  0  0  0  0
    9.4651   -3.5950    0.0000 C   0  0  0  0  0  0  0  0  0  0  0  0
   12.9292   -0.5950    0.0000 C   0  0  0  0  0  0  0  0  0  0  0  0
    6.8671   -2.0950    0.0000 C   0  0  0  0  0  0  0  0  0  0  0  0
    6.8671    3.9050    0.0000 C   0  0  0  0  0  0  0  0  0  0  0  0
   12.0632    0.9050    0.0000 C   0  0  0  0  0  0  0  0  0  0  0  0
   13.7953   -0.0950    0.0000 C   0  0  0  0  0  0  0  0  0  0  0  0
    3.4030    2.9050    0.0000 C   0  0  0  0  0  0  0  0  0  0  0  0
   13.7953    0.9050    0.0000 C   0  0  0  0  0  0  0  0  0  0  0  0
    8.4651   -4.5950    0.0000 C   0  0  0  0  0  0  0  0  0  0  0  0
   10.4651   -4.5950    0.0000 C   0  0  0  0  0  0  0  0  0  0  0  0
   12.9292    1.4050    0.0000 C   0  0  0  0  0  0  0  0  0  0  0  0
    9.4651    4.4050    0.0000 C   0  0  0  0  0  0  0  0  0  0  0  0
   11.1972    4.4050    0.0000 C   0  0  0  0  0  0  0  0  0  0  0  0
    5.9535   -1.6883    0.0000 C   0  0  0  0  0  0  0  0  0  0  0  0
   14.6892   -0.6297    0.0000 C   0  0  0  0  0  0  0  0  0  0  0  0
   14.6892    1.4397    0.0000 C   0  0  0  0  0  0  0  0  0  0  0  0
    9.4651    5.4050    0.0000 C   0  0  0  0  0  0  0  0  0  0  0  0
   11.1972    5.4050    0.0000 C   0  0  0  0  0  0  0  0  0  0  0  0
    5.7844   -3.2974    0.0000 C   0  0  0  0  0  0  0  0  0  0  0  0
   15.5953   -0.1158    0.0000 C   0  0  0  0  0  0  0  0  0  0  0  0
   10.3312    5.9050    0.0000 C   0  0  0  0  0  0  0  0  0  0  0  0
   15.5953    0.9258    0.0000 C   0  0  0  0  0  0  0  0  0  0  0  0
    9.7942    0.2150    0.0000 H   0  0  0  0  0  0  0  0  0  0  0  0
   10.0021    2.0950    0.0000 H   0  0  0  0  0  0  0  0  0  0  0  0
   10.7987   -1.0700    0.0000 H   0  0  0  0  0  0  0  0  0  0  0  0
   11.5957   -1.0700    0.0000 H   0  0  0  0  0  0  0  0  0  0  0  0
    8.0622   -2.4050    0.0000 H   0  0  0  0  0  0  0  0  0  0  0  0
    7.4040    3.2150    0.0000 H   0  0  0  0  0  0  0  0  0  0  0  0
    5.6025    1.9301    0.0000 H   0  0  0  0  0  0  0  0  0  0  0  0
    6.3996    1.9301    0.0000 H   0  0  0  0  0  0  0  0  0  0  0  0
   10.5432    2.3224    0.0000 H   0  0  0  0  0  0  0  0  0  0  0  0
   10.9417    3.0127    0.0000 H   0  0  0  0  0  0  0  0  0  0  0  0
    8.9282    1.0950    0.0000 H   0  0  0  0  0  0  0  0  0  0  0  0
    8.9282   -0.2850    0.0000 H   0  0  0  0  0  0  0  0  0  0  0  0
    5.5335    3.3800    0.0000 H   0  0  0  0  0  0  0  0  0  0  0  0
    4.7365    3.3800    0.0000 H   0  0  0  0  0  0  0  0  0  0  0  0
    8.1316   -1.1201    0.0000 H   0  0  0  0  0  0  0  0  0  0  0  0
    7.3346   -1.1201    0.0000 H   0  0  0  0  0  0  0  0  0  0  0  0
    7.7331    1.7850    0.0000 H   0  0  0  0  0  0  0  0  0  0  0  0
    8.0622   -3.4050    0.0000 H   0  0  0  0  0  0  0  0  0  0  0  0
    3.8705    1.9301    0.0000 H   0  0  0  0  0  0  0  0  0  0  0  0
    4.6675    1.9301    0.0000 H   0  0  0  0  0  0  0  0  0  0  0  0
   12.9292   -1.2150    0.0000 H   0  0  0  0  0  0  0  0  0  0  0  0
   11.5263    1.2150    0.0000 H   0  0  0  0  0  0  0  0  0  0  0  0
    3.8015    3.3800    0.0000 H   0  0  0  0  0  0  0  0  0  0  0  0
    3.0044    3.3800    0.0000 H   0  0  0  0  0  0  0  0  0  0  0  0
    8.4651   -3.9750    0.0000 H   0  0  0  0  0  0  0  0  0  0  0  0
    7.8451   -4.5950    0.0000 H   0  0  0  0  0  0  0  0  0  0  0  0
    8.4651   -5.2150    0.0000 H   0  0  0  0  0  0  0  0  0  0  0  0
   10.4651   -5.2150    0.0000 H   0  0  0  0  0  0  0  0  0  0  0  0
   11.0851   -4.5950    0.0000 H   0  0  0  0  0  0  0  0  0  0  0  0
   10.4651   -3.9750    0.0000 H   0  0  0  0  0  0  0  0  0  0  0  0
   12.9292    2.0250    0.0000 H   0  0  0  0  0  0  0  0  0  0  0  0
    8.9282    4.0950    0.0000 H   0  0  0  0  0  0  0  0  0  0  0  0
   11.7341    4.0950    0.0000 H   0  0  0  0  0  0  0  0  0  0  0  0
    8.9282   -5.9050    0.0000 H   0  0  0  0  0  0  0  0  0  0  0  0
   10.0021   -5.9050    0.0000 H   0  0  0  0  0  0  0  0  0  0  0  0
    7.2233   -3.5044    0.0000 H   0  0  0  0  0  0  0  0  0  0  0  0
    5.8246   -1.0818    0.0000 H   0  0  0  0  0  0  0  0  0  0  0  0
   14.6820   -1.2496    0.0000 H   0  0  0  0  0  0  0  0  0  0  0  0
   14.6820    2.0596    0.0000 H   0  0  0  0  0  0  0  0  0  0  0  0
    6.0010    5.0250    0.0000 H   0  0  0  0  0  0  0  0  0  0  0  0
    5.4641    4.0950    0.0000 H   0  0  0  0  0  0  0  0  0  0  0  0
    8.9282    5.7150    0.0000 H   0  0  0  0  0  0  0  0  0  0  0  0
   11.7341    5.7150    0.0000 H   0  0  0  0  0  0  0  0  0  0  0  0
    2.0000    2.7150    0.0000 H   0  0  0  0  0  0  0  0  0  0  0  0
    2.5369    1.7850    0.0000 H   0  0  0  0  0  0  0  0  0  0  0  0
    5.5322   -3.8638    0.0000 H   0  0  0  0  0  0  0  0  0  0  0  0
   16.1310   -0.4279    0.0000 H   0  0  0  0  0  0  0  0  0  0  0  0
   10.3312    6.5250    0.0000 H   0  0  0  0  0  0  0  0  0  0  0  0
   16.1310    1.2379    0.0000 H   0  0  0  0  0  0  0  0  0  0  0  0
  1 21  2  0  0  0  0
  2 23  2  0  0  0  0
  3 25  2  0  0  0  0
  4 31  2  0  0  0  0
  5 34  2  0  0  0  0
 16  6  1  1  0  0  0
  6 21  1  0  0  0  0
  6 63  1  0  0  0  0
 15  7  1  1  0  0  0
  7 25  1  0  0  0  0
  7 64  1  0  0  0  0
 19  8  1  1  0  0  0
  8 23  1  0  0  0  0
  8 69  1  0  0  0  0
 18  9  1  1  0  0  0
  9 31  1  0  0  0  0
  9 70  1  0  0  0  0
 10 28  1  0  0  0  0
 10 86  1  0  0  0  0
 10 87  1  0  0  0  0
 11 33  1  0  0  0  0
 11 49  1  0  0  0  0
 11 88  1  0  0  0  0
 12 34  1  0  0  0  0
 12 92  1  0  0  0  0
 12 93  1  0  0  0  0
 13 37  1  0  0  0  0
 13 96  1  0  0  0  0
 13 97  1  0  0  0  0
 14 44  1  0  0  0  0
 14 49  2  0  0  0  0
 15 17  1  0  0  0  0
 15 21  1  0  0  0  0
 15 53  1  0  0  0  0
 16 22  1  0  0  0  0
 16 23  1  0  0  0  0
 16 54  1  0  0  0  0
 17 27  1  0  0  0  0
 17 55  1  0  0  0  0
 17 56  1  0  0  0  0
 18 25  1  0  0  0  0
 18 26  1  0  0  0  0
 18 57  1  0  0  0  0
 19 20  1  0  0  0  0
 19 34  1  0  0  0  0
 19 58  1  0  0  0  0
 20 24  1  0  0  0  0
 20 59  1  0  0  0  0
 20 60  1  0  0  0  0
 22 30  1  0  0  0  0
 22 61  1  0  0  0  0
 22 62  1  0  0  0  0
 24 29  1  0  0  0  0
 24 65  1  0  0  0  0
 24 66  1  0  0  0  0
 26 33  1  0  0  0  0
 26 67  1  0  0  0  0
 26 68  1  0  0  0  0
 27 32  2  0  0  0  0
 27 35  1  0  0  0  0
 28 31  1  0  0  0  0
 28 39  1  0  0  0  0
 28 40  1  0  0  0  0
 29 37  1  0  0  0  0
 29 71  1  0  0  0  0
 29 72  1  0  0  0  0
 30 42  2  0  0  0  0
 30 43  1  0  0  0  0
 32 36  1  0  0  0  0
 32 73  1  0  0  0  0
 33 44  2  0  0  0  0
 35 41  2  0  0  0  0
 35 74  1  0  0  0  0
 36 38  1  0  0  0  0
 36 45  2  0  0  0  0
 37 75  1  0  0  0  0
 37 76  1  0  0  0  0
 38 41  1  0  0  0  0
 38 46  2  0  0  0  0
 39 77  1  0  0  0  0
 39 78  1  0  0  0  0
 39 79  1  0  0  0  0
 40 80  1  0  0  0  0
 40 81  1  0  0  0  0
 40 82  1  0  0  0  0
 41 83  1  0  0  0  0
 42 47  1  0  0  0  0
 42 84  1  0  0  0  0
 43 48  2  0  0  0  0
 43 85  1  0  0  0  0
 44 89  1  0  0  0  0
 45 50  1  0  0  0  0
 45 90  1  0  0  0  0
 46 52  1  0  0  0  0
 46 91  1  0  0  0  0
 47 51  2  0  0  0  0
 47 94  1  0  0  0  0
 48 51  1  0  0  0  0
 48 95  1  0  0  0  0
 49 98  1  0  0  0  0
 50 52  2  0  0  0  0
 50 99  1  0  0  0  0
 51100  1  0  0  0  0
 52101  1  0  0  0  0
M  END
> <PUBCHEM_COMPOUND_CID>
9831659

> <PUBCHEM_COMPOUND_CANONICALIZED>
1

> <PUBCHEM_CACTVS_COMPLEXITY>
1200

> <PUBCHEM_CACTVS_HBOND_ACCEPTOR>
8

> <PUBCHEM_CACTVS_HBOND_DONOR>
8

> <PUBCHEM_CACTVS_ROTATABLE_BOND>
19

> <PUBCHEM_CACTVS_SUBSKEYS>
AAADcfB/+AAAAAAAAAAAAAAAAAAAAWAAAAAwYMAAAAAAAADB1AAAHgAQAAAADKjBngQ/kNbJkACoAzV3dAACgC2xEqAJ2YG4cIiIaDLA2TGUIAAolgLIyCccicCOwAACAAAQAACAAAQAACAAAAAAAAAAAA==

> <PUBCHEM_IUPAC_OPENEYE_NAME>
(2S)-6-amino-2-[[(2R)-2-[[(2R)-2-[[(2S)-2-[(2-amino-2-methyl-propanoyl)amino]-3-(1H-imidazol-5-yl)propanoyl]amino]-3-(2-naphthyl)propanoyl]amino]-3-phenyl-propanoyl]amino]hexanamide

> <PUBCHEM_IUPAC_CAS_NAME>
(2S)-6-amino-2-[[(2R)-2-[[(2R)-2-[[(2S)-2-[(2-amino-2-methyl-1-oxopropyl)amino]-3-(1H-imidazol-5-yl)-1-oxopropyl]amino]-3-(2-naphthalenyl)-1-oxopropyl]amino]-1-oxo-3-phenylpropyl]amino]hexanamide

> <PUBCHEM_IUPAC_NAME_MARKUP>
(2<I>S</I>)-6-amino-2-[[(2<I>R</I>)-2-[[(2<I>R</I>)-2-[[(2<I>S</I>)-2-[(2-amino-2-methylpropanoyl)amino]-3-(1<I>H</I>-imidazol-5-yl)propanoyl]amino]-3-naphthalen-2-ylpropanoyl]amino]-3-phenylpropanoyl]amino]hexanamide

> <PUBCHEM_IUPAC_NAME>
(2S)-6-amino-2-[[(2R)-2-[[(2R)-2-[[(2S)-2-[(2-amino-2-methylpropanoyl)amino]-3-(1H-imidazol-5-yl)propanoyl]amino]-3-naphthalen-2-ylpropanoyl]amino]-3-phenylpropanoyl]amino]hexanamide

> <PUBCHEM_IUPAC_SYSTEMATIC_NAME>
(2S)-6-azanyl-2-[[(2R)-2-[[(2R)-2-[[(2S)-2-[(2-azanyl-2-methyl-propanoyl)amino]-3-(1H-imidazol-5-yl)propanoyl]amino]-3-naphthalen-2-yl-propanoyl]amino]-3-phenyl-propanoyl]amino]hexanamide

> <PUBCHEM_IUPAC_TRADITIONAL_NAME>
(2S)-6-amino-2-[[(2R)-2-[[(2R)-2-[[(2S)-2-[(2-amino-2-methyl-propanoyl)amino]-3-(1H-imidazol-5-yl)propanoyl]amino]-3-(2-naphthyl)propanoyl]amino]-3-phenyl-propanoyl]amino]hexanamide

> <PUBCHEM_IUPAC_INCHI>
InChI=1S/C38H49N9O5/c1-38(2,41)37(52)47-32(21-28-22-42-23-43-28)36(51)46-31(20-25-15-16-26-12-6-7-13-27(26)18-25)35(50)45-30(19-24-10-4-3-5-11-24)34(49)44-29(33(40)48)14-8-9-17-39/h3-7,10-13,15-16,18,22-23,29-32H,8-9,14,17,19-21,39,41H2,1-2H3,(H2,40,48)(H,42,43)(H,44,49)(H,45,50)(H,46,51)(H,47,52)/t29-,30+,31+,32-/m0/s1

> <PUBCHEM_IUPAC_INCHIKEY>
NEHWBYHLYZGBNO-BVEPWEIPSA-N

> <PUBCHEM_XLOGP3_AA>
1.8

> <PUBCHEM_EXACT_MASS>
711.38566570

> <PUBCHEM_MOLECULAR_FORMULA>
C38H49N9O5

> <PUBCHEM_MOLECULAR_WEIGHT>
711.9

> <PUBCHEM_SMILES>
CC(C)(C(=O)N[C@@H](CC1=CN=CN1)C(=O)N[C@H](CC2=CC3=CC=CC=C3C=C2)C(=O)N[C@H](CC4=CC=CC=C4)C(=O)N[C@@H](CCCCN)C(=O)N)N

> <PUBCHEM_CONNECTIVITY_SMILES>
CC(C)(C(=O)NC(CC1=CN=CN1)C(=O)NC(CC2=CC3=CC=CC=C3C=C2)C(=O)NC(CC4=CC=CC=C4)C(=O)NC(CCCCN)C(=O)N)N

> <PUBCHEM_CACTVS_TPSA>
240

> <PUBCHEM_MONOISOTOPIC_WEIGHT>
711.38566570

> <PUBCHEM_TOTAL_CHARGE>
0

> <PUBCHEM_HEAVY_ATOM_COUNT>
52

> <PUBCHEM_ATOM_DEF_STEREO_COUNT>
4

> <PUBCHEM_ATOM_UDEF_STEREO_COUNT>
0

> <PUBCHEM_BOND_DEF_STEREO_COUNT>
0

> <PUBCHEM_BOND_UDEF_STEREO_COUNT>
0

> <PUBCHEM_ISOTOPIC_ATOM_COUNT>
0

> <PUBCHEM_COMPONENT_COUNT>
1

> <PUBCHEM_CACTVS_TAUTO_COUNT>
-1

> <PUBCHEM_COORDINATE_TYPE>
1
5
255

> <PUBCHEM_BONDANNOTATIONS>
11  33  8
11  49  8
14  44  8
14  49  8
27  32  8
27  35  8
30  42  8
30  43  8
32  36  8
33  44  8
35  41  8
36  38  8
36  45  8
38  41  8
38  46  8
42  47  8
43  48  8
45  50  8
46  52  8
47  51  8
48  51  8
50  52  8
16  6  5
15  7  5
19  8  5
18  9  5

$$$$
