146675088
  -OEChem-11132518582D

305310  0     1  0  0  0  0  0999 V2000
   27.1850   -1.2432    0.0000 S   0  0  0  0  0  0  0  0  0  0  0  0
   29.7993   -9.3774    0.0000 S   0  0  0  0  0  0  0  0  0  0  0  0
   16.3076    4.1123    0.0000 O   0  0  0  0  0  0  0  0  0  0  0  0
   15.0632    4.6663    0.0000 O   0  0  0  0  0  0  0  0  0  0  0  0
   12.4651    7.1663    0.0000 O   0  0  0  0  0  0  0  0  0  0  0  0
   19.9039    3.8543    0.0000 O   0  0  0  0  0  0  0  0  0  0  0  0
    9.7331    4.6663    0.0000 O   0  0  0  0  0  0  0  0  0  0  0  0
   20.8549    3.5453    0.0000 O   0  0  0  0  0  0  0  0  0  0  0  0
   15.2371    0.8177    0.0000 O   0  0  0  0  0  0  0  0  0  0  0  0
    7.0010    7.1663    0.0000 O   0  0  0  0  0  0  0  0  0  0  0  0
   24.4512    3.2874    0.0000 O   0  0  0  0  0  0  0  0  0  0  0  0
    3.4030    6.1663    0.0000 O   0  0  0  0  0  0  0  0  0  0  0  0
    4.2690    4.6663    0.0000 O   0  0  0  0  0  0  0  0  0  0  0  0
   25.4023    2.9784    0.0000 O   0  0  0  0  0  0  0  0  0  0  0  0
   27.7511    8.5894    0.0000 O   0  0  0  0  0  0  0  0  0  0  0  0
   28.9986    2.7205    0.0000 O   0  0  0  0  0  0  0  0  0  0  0  0
   32.3561   -4.7446    0.0000 O   0  0  0  0  0  0  0  0  0  0  0  0
   28.8792   -0.8831    0.0000 O   0  0  0  0  0  0  0  0  0  0  0  0
   32.5640   -5.7227    0.0000 O   0  0  0  0  0  0  0  0  0  0  0  0
   32.4755   -1.1410    0.0000 O   0  0  0  0  0  0  0  0  0  0  0  0
   34.1388   -8.9662    0.0000 O   0  0  0  0  0  0  0  0  0  0  0  0
   29.7108   -4.7957    0.0000 O   0  0  0  0  0  0  0  0  0  0  0  0
   33.9618    0.1972    0.0000 O   0  0  0  0  0  0  0  0  0  0  0  0
   32.8028    1.4844    0.0000 O   0  0  0  0  0  0  0  0  0  0  0  0
   16.8428    5.7595    0.0000 N   0  0  0  0  0  0  0  0  0  0  0  0
   14.1972    6.1663    0.0000 N   0  0  0  0  0  0  0  0  0  0  0  0
   18.7449    5.1415    0.0000 N   0  0  0  0  0  0  0  0  0  0  0  0
   11.4651    5.6663    0.0000 N   0  0  0  0  0  0  0  0  0  0  0  0
   21.3902    5.1926    0.0000 N   0  0  0  0  0  0  0  0  0  0  0  0
   13.3312    2.6663    0.0000 N   0  0  0  0  0  0  0  0  0  0  0  0
    8.7331    6.1663    0.0000 N   0  0  0  0  0  0  0  0  0  0  0  0
   23.2923    4.5746    0.0000 N   0  0  0  0  0  0  0  0  0  0  0  0
    6.0010    5.6663    0.0000 N   0  0  0  0  0  0  0  0  0  0  0  0
    8.8671   10.1663    0.0000 N   0  0  0  0  0  0  0  0  0  0  0  0
   14.1972    1.1663    0.0000 N   0  0  0  0  0  0  0  0  0  0  0  0
   25.9375    4.6257    0.0000 N   0  0  0  0  0  0  0  0  0  0  0  0
   12.4651    1.1663    0.0000 N   0  0  0  0  0  0  0  0  0  0  0  0
    3.4030    9.1663    0.0000 N   0  0  0  0  0  0  0  0  0  0  0  0
   27.3044    2.3604    0.0000 N   0  0  0  0  0  0  0  0  0  0  0  0
   29.4144    0.7642    0.0000 N   0  0  0  0  0  0  0  0  0  0  0  0
   34.2582   -5.3626    0.0000 N   0  0  0  0  0  0  0  0  0  0  0  0
   32.8913   -3.0973    0.0000 N   0  0  0  0  0  0  0  0  0  0  0  0
   30.7813   -1.5012    0.0000 N   0  0  0  0  0  0  0  0  0  0  0  0
   32.9798   -7.6790    0.0000 N   0  0  0  0  0  0  0  0  0  0  0  0
   37.0450   -4.9726    0.0000 N   0  0  0  0  0  0  0  0  0  0  0  0
    2.5369   10.6663    0.0000 N   0  0  0  0  0  0  0  0  0  0  0  0
    4.2690   10.6663    0.0000 N   0  0  0  0  0  0  0  0  0  0  0  0
   36.0409   -9.5843    0.0000 N   0  0  0  0  0  0  0  0  0  0  0  0
   32.6525  -10.3045    0.0000 N   0  0  0  0  0  0  0  0  0  0  0  0
   30.8698   -6.0829    0.0000 N   0  0  0  0  0  0  0  0  0  0  0  0
   37.1999  -10.8714    0.0000 N   0  0  0  0  0  0  0  0  0  0  0  0
   37.7351   -9.2241    0.0000 N   0  0  0  0  0  0  0  0  0  0  0  0
   15.9292    6.1663    0.0000 C   0  0  1  0  0  0  0  0  0  0  0  0
   16.0338    7.1608    0.0000 C   0  0  0  0  0  0  0  0  0  0  0  0
   17.0119    7.3687    0.0000 C   0  0  0  0  0  0  0  0  0  0  0  0
   17.5119    6.5027    0.0000 C   0  0  0  0  0  0  0  0  0  0  0  0
   17.0507    4.7814    0.0000 C   0  0  0  0  0  0  0  0  0  0  0  0
   15.0632    5.6663    0.0000 C   0  0  0  0  0  0  0  0  0  0  0  0
   18.0018    4.4724    0.0000 C   0  0  2  0  0  0  0  0  0  0  0  0
   13.3312    5.6663    0.0000 C   0  0  1  0  0  0  0  0  0  0  0  0
   18.2097    3.4942    0.0000 C   0  0  0  0  0  0  0  0  0  0  0  0
   13.3312    4.6663    0.0000 C   0  0  0  0  0  0  0  0  0  0  0  0
   17.4665    2.8251    0.0000 C   0  0  0  0  0  0  0  0  0  0  0  0
   12.4651    6.1663    0.0000 C   0  0  0  0  0  0  0  0  0  0  0  0
   12.4651    4.1663    0.0000 C   0  0  0  0  0  0  0  0  0  0  0  0
   19.6960    4.8325    0.0000 C   0  0  0  0  0  0  0  0  0  0  0  0
   20.4391    5.5016    0.0000 C   0  0  2  0  0  0  0  0  0  0  0  0
   10.5991    6.1663    0.0000 C   0  0  1  0  0  0  0  0  0  0  0  0
   12.4651    3.1663    0.0000 C   0  0  0  0  0  0  0  0  0  0  0  0
   20.2312    6.4798    0.0000 C   0  0  0  0  0  0  0  0  0  0  0  0
   16.5155    3.1341    0.0000 C   0  0  0  0  0  0  0  0  0  0  0  0
   17.6744    1.8469    0.0000 C   0  0  0  0  0  0  0  0  0  0  0  0
   10.5991    7.1663    0.0000 C   0  0  0  0  0  0  0  0  0  0  0  0
   22.5491    3.9054    0.0000 C   0  0  1  0  0  0  0  0  0  0  0  0
    9.7331    5.6663    0.0000 C   0  0  0  0  0  0  0  0  0  0  0  0
    9.7331    7.6663    0.0000 C   0  0  0  0  0  0  0  0  0  0  0  0
   22.7570    2.9273    0.0000 C   0  0  2  0  0  0  0  0  0  0  0  0
   21.5981    4.2144    0.0000 C   0  0  0  0  0  0  0  0  0  0  0  0
   15.7723    2.4650    0.0000 C   0  0  0  0  0  0  0  0  0  0  0  0
   16.9313    1.1778    0.0000 C   0  0  0  0  0  0  0  0  0  0  0  0
   20.9743    7.1489    0.0000 C   0  0  0  0  0  0  0  0  0  0  0  0
   15.9802    1.4868    0.0000 C   0  0  0  0  0  0  0  0  0  0  0  0
    7.8671    5.6663    0.0000 C   0  0  1  0  0  0  0  0  0  0  0  0
    9.7331    8.6663    0.0000 C   0  0  0  0  0  0  0  0  0  0  0  0
   23.7081    2.6183    0.0000 C   0  0  0  0  0  0  0  0  0  0  0  0
    7.8671    4.6663    0.0000 C   0  0  0  0  0  0  0  0  0  0  0  0
   22.0139    2.2582    0.0000 C   0  0  0  0  0  0  0  0  0  0  0  0
    7.0010    4.1663    0.0000 C   0  0  0  0  0  0  0  0  0  0  0  0
   20.7664    8.1270    0.0000 C   0  0  0  0  0  0  0  0  0  0  0  0
   21.9254    6.8399    0.0000 C   0  0  0  0  0  0  0  0  0  0  0  0
    8.8671    9.1663    0.0000 C   0  0  0  0  0  0  0  0  0  0  0  0
   13.3312    1.6663    0.0000 C   0  0  0  0  0  0  0  0  0  0  0  0
    7.0010    6.1663    0.0000 C   0  0  0  0  0  0  0  0  0  0  0  0
   24.2433    4.2656    0.0000 C   0  0  0  0  0  0  0  0  0  0  0  0
   23.9160    1.6401    0.0000 C   0  0  0  0  0  0  0  0  0  0  0  0
   24.9865    4.9347    0.0000 C   0  0  2  0  0  0  0  0  0  0  0  0
   21.5096    8.7962    0.0000 C   0  0  0  0  0  0  0  0  0  0  0  0
   22.6685    7.5090    0.0000 C   0  0  0  0  0  0  0  0  0  0  0  0
    7.0010    3.1663    0.0000 C   0  0  0  0  0  0  0  0  0  0  0  0
    6.1350    4.6663    0.0000 C   0  0  0  0  0  0  0  0  0  0  0  0
   22.4606    8.4872    0.0000 C   0  0  0  0  0  0  0  0  0  0  0  0
    5.1350    6.1663    0.0000 C   0  0  1  0  0  0  0  0  0  0  0  0
   24.7786    5.9128    0.0000 C   0  0  0  0  0  0  0  0  0  0  0  0
    5.1350    7.1663    0.0000 C   0  0  0  0  0  0  0  0  0  0  0  0
   25.5217    6.5820    0.0000 C   0  0  0  0  0  0  0  0  0  0  0  0
    4.2690    7.6663    0.0000 C   0  0  0  0  0  0  0  0  0  0  0  0
    4.2690    5.6663    0.0000 C   0  0  0  0  0  0  0  0  0  0  0  0
   26.1454    3.6475    0.0000 C   0  0  0  0  0  0  0  0  0  0  0  0
    4.2690    8.6663    0.0000 C   0  0  0  0  0  0  0  0  0  0  0  0
   25.3138    7.5601    0.0000 C   0  0  0  0  0  0  0  0  0  0  0  0
   26.4728    6.2729    0.0000 C   0  0  0  0  0  0  0  0  0  0  0  0
   27.0965    3.3385    0.0000 C   0  0  0  0  0  0  0  0  0  0  0  0
   26.0569    8.2292    0.0000 C   0  0  0  0  0  0  0  0  0  0  0  0
   27.2159    6.9421    0.0000 C   0  0  0  0  0  0  0  0  0  0  0  0
   27.0080    7.9202    0.0000 C   0  0  0  0  0  0  0  0  0  0  0  0
   28.4634    1.0732    0.0000 C   0  0  2  0  0  0  0  0  0  0  0  0
   28.2555    2.0513    0.0000 C   0  0  0  0  0  0  0  0  0  0  0  0
   34.0503   -4.3845    0.0000 C   0  0  1  0  0  0  0  0  0  0  0  0
   34.7934   -3.7154    0.0000 C   0  0  0  0  0  0  0  0  0  0  0  0
   31.9403   -2.7883    0.0000 C   0  0  1  0  0  0  0  0  0  0  0  0
   30.5734   -0.5230    0.0000 C   0  0  2  0  0  0  0  0  0  0  0  0
   27.7202    0.4041    0.0000 C   0  0  0  0  0  0  0  0  0  0  0  0
   33.7230   -7.0099    0.0000 C   0  0  1  0  0  0  0  0  0  0  0  0
    3.4030   10.1663    0.0000 C   0  0  0  0  0  0  0  0  0  0  0  0
   35.7445   -4.0244    0.0000 C   0  0  0  0  0  0  0  0  0  0  0  0
   33.0992   -4.0755    0.0000 C   0  0  0  0  0  0  0  0  0  0  0  0
   34.6740   -7.3189    0.0000 C   0  0  0  0  0  0  0  0  0  0  0  0
   31.1971   -3.4574    0.0000 C   0  0  0  0  0  0  0  0  0  0  0  0
   29.6223   -0.2140    0.0000 C   0  0  0  0  0  0  0  0  0  0  0  0
   33.5151   -6.0318    0.0000 C   0  0  0  0  0  0  0  0  0  0  0  0
   31.3165    0.1461    0.0000 C   0  0  0  0  0  0  0  0  0  0  0  0
   31.7324   -1.8102    0.0000 C   0  0  0  0  0  0  0  0  0  0  0  0
   36.5482   -3.4394    0.0000 C   0  0  0  0  0  0  0  0  0  0  0  0
   34.8820   -8.2971    0.0000 C   0  0  0  0  0  0  0  0  0  0  0  0
   27.9281   -0.5741    0.0000 C   0  0  0  0  0  0  0  0  0  0  0  0
   37.3562   -4.0286    0.0000 C   0  0  0  0  0  0  0  0  0  0  0  0
   36.0509   -4.9701    0.0000 C   0  0  0  0  0  0  0  0  0  0  0  0
   31.4050   -4.4356    0.0000 C   0  0  0  0  0  0  0  0  0  0  0  0
   32.2676   -0.1629    0.0000 C   0  0  0  0  0  0  0  0  0  0  0  0
   35.8330   -8.6061    0.0000 C   0  0  0  0  0  0  0  0  0  0  0  0
   36.6545   -2.4450    0.0000 C   0  0  0  0  0  0  0  0  0  0  0  0
   33.1878   -8.6572    0.0000 C   0  0  0  0  0  0  0  0  0  0  0  0
   32.4446   -9.3263    0.0000 C   0  0  2  0  0  0  0  0  0  0  0  0
   38.2705   -3.6234    0.0000 C   0  0  0  0  0  0  0  0  0  0  0  0
   31.4935   -9.0173    0.0000 C   0  0  0  0  0  0  0  0  0  0  0  0
   37.5687   -2.0399    0.0000 C   0  0  0  0  0  0  0  0  0  0  0  0
   30.6619   -5.1047    0.0000 C   0  0  0  0  0  0  0  0  0  0  0  0
   38.3767   -2.6291    0.0000 C   0  0  0  0  0  0  0  0  0  0  0  0
   33.0107    0.5062    0.0000 C   0  0  0  0  0  0  0  0  0  0  0  0
   30.7504   -9.6864    0.0000 C   0  0  0  0  0  0  0  0  0  0  0  0
   27.3929   -2.2214    0.0000 C   0  0  0  0  0  0  0  0  0  0  0  0
   36.9920   -9.8933    0.0000 C   0  0  0  0  0  0  0  0  0  0  0  0
   29.0562  -10.0466    0.0000 C   0  0  0  0  0  0  0  0  0  0  0  0
   15.9617    5.5471    0.0000 H   0  0  0  0  0  0  0  0  0  0  0  0
   15.9690    7.7774    0.0000 H   0  0  0  0  0  0  0  0  0  0  0  0
   15.4138    7.1608    0.0000 H   0  0  0  0  0  0  0  0  0  0  0  0
   17.5783    7.6209    0.0000 H   0  0  0  0  0  0  0  0  0  0  0  0
   16.8203    7.9584    0.0000 H   0  0  0  0  0  0  0  0  0  0  0  0
   17.9268    6.0419    0.0000 H   0  0  0  0  0  0  0  0  0  0  0  0
   18.0135    6.8671    0.0000 H   0  0  0  0  0  0  0  0  0  0  0  0
   17.8728    5.0788    0.0000 H   0  0  0  0  0  0  0  0  0  0  0  0
   14.1972    6.7863    0.0000 H   0  0  0  0  0  0  0  0  0  0  0  0
   13.8681    5.3563    0.0000 H   0  0  0  0  0  0  0  0  0  0  0  0
   18.5382    2.9684    0.0000 H   0  0  0  0  0  0  0  0  0  0  0  0
   18.7845    3.7265    0.0000 H   0  0  0  0  0  0  0  0  0  0  0  0
   18.6160    5.7480    0.0000 H   0  0  0  0  0  0  0  0  0  0  0  0
   13.5432    4.0837    0.0000 H   0  0  0  0  0  0  0  0  0  0  0  0
   13.9417    4.7739    0.0000 H   0  0  0  0  0  0  0  0  0  0  0  0
   12.2531    4.7489    0.0000 H   0  0  0  0  0  0  0  0  0  0  0  0
   11.8546    4.0586    0.0000 H   0  0  0  0  0  0  0  0  0  0  0  0
   20.8999    5.9165    0.0000 H   0  0  0  0  0  0  0  0  0  0  0  0
   12.0021    5.3563    0.0000 H   0  0  0  0  0  0  0  0  0  0  0  0
   10.5991    5.5463    0.0000 H   0  0  0  0  0  0  0  0  0  0  0  0
   11.8546    3.2739    0.0000 H   0  0  0  0  0  0  0  0  0  0  0  0
   12.2531    2.5837    0.0000 H   0  0  0  0  0  0  0  0  0  0  0  0
   19.9026    7.0056    0.0000 H   0  0  0  0  0  0  0  0  0  0  0  0
   19.6563    6.2475    0.0000 H   0  0  0  0  0  0  0  0  0  0  0  0
   16.3866    3.7406    0.0000 H   0  0  0  0  0  0  0  0  0  0  0  0
   18.2641    1.6554    0.0000 H   0  0  0  0  0  0  0  0  0  0  0  0
   11.2097    7.0586    0.0000 H   0  0  0  0  0  0  0  0  0  0  0  0
   10.8112    7.7489    0.0000 H   0  0  0  0  0  0  0  0  0  0  0  0
   21.8509    5.6075    0.0000 H   0  0  0  0  0  0  0  0  0  0  0  0
   22.4202    4.5119    0.0000 H   0  0  0  0  0  0  0  0  0  0  0  0
    9.1225    7.7739    0.0000 H   0  0  0  0  0  0  0  0  0  0  0  0
    9.5210    7.0837    0.0000 H   0  0  0  0  0  0  0  0  0  0  0  0
   22.8859    2.3208    0.0000 H   0  0  0  0  0  0  0  0  0  0  0  0
   15.1827    2.6566    0.0000 H   0  0  0  0  0  0  0  0  0  0  0  0
   17.0602    0.5714    0.0000 H   0  0  0  0  0  0  0  0  0  0  0  0
   13.8681    2.9763    0.0000 H   0  0  0  0  0  0  0  0  0  0  0  0
    8.4040    5.3563    0.0000 H   0  0  0  0  0  0  0  0  0  0  0  0
    9.2700    6.4763    0.0000 H   0  0  0  0  0  0  0  0  0  0  0  0
   10.3437    8.5586    0.0000 H   0  0  0  0  0  0  0  0  0  0  0  0
    9.9451    9.2489    0.0000 H   0  0  0  0  0  0  0  0  0  0  0  0
   24.3277    2.6399    0.0000 H   0  0  0  0  0  0  0  0  0  0  0  0
   23.7944    3.2322    0.0000 H   0  0  0  0  0  0  0  0  0  0  0  0
    8.0791    4.0837    0.0000 H   0  0  0  0  0  0  0  0  0  0  0  0
    8.4776    4.7739    0.0000 H   0  0  0  0  0  0  0  0  0  0  0  0
   23.1634    5.1810    0.0000 H   0  0  0  0  0  0  0  0  0  0  0  0
   21.5990    2.7189    0.0000 H   0  0  0  0  0  0  0  0  0  0  0  0
   21.5531    1.8433    0.0000 H   0  0  0  0  0  0  0  0  0  0  0  0
   22.4288    1.7974    0.0000 H   0  0  0  0  0  0  0  0  0  0  0  0
    7.0010    4.7863    0.0000 H   0  0  0  0  0  0  0  0  0  0  0  0
   20.1768    8.3186    0.0000 H   0  0  0  0  0  0  0  0  0  0  0  0
   22.0543    6.2334    0.0000 H   0  0  0  0  0  0  0  0  0  0  0  0
    8.2565    9.2739    0.0000 H   0  0  0  0  0  0  0  0  0  0  0  0
    8.6550    8.5837    0.0000 H   0  0  0  0  0  0  0  0  0  0  0  0
   23.3096    1.5112    0.0000 H   0  0  0  0  0  0  0  0  0  0  0  0
   24.0449    1.0337    0.0000 H   0  0  0  0  0  0  0  0  0  0  0  0
   24.5225    1.7690    0.0000 H   0  0  0  0  0  0  0  0  0  0  0  0
   25.4472    5.3495    0.0000 H   0  0  0  0  0  0  0  0  0  0  0  0
   21.3807    9.4026    0.0000 H   0  0  0  0  0  0  0  0  0  0  0  0
   23.2582    7.3174    0.0000 H   0  0  0  0  0  0  0  0  0  0  0  0
   15.3660    0.2112    0.0000 H   0  0  0  0  0  0  0  0  0  0  0  0
    6.3810    3.1663    0.0000 H   0  0  0  0  0  0  0  0  0  0  0  0
    7.0010    2.5463    0.0000 H   0  0  0  0  0  0  0  0  0  0  0  0
    7.6210    3.1663    0.0000 H   0  0  0  0  0  0  0  0  0  0  0  0
    6.4450    5.2032    0.0000 H   0  0  0  0  0  0  0  0  0  0  0  0
    5.5981    4.9763    0.0000 H   0  0  0  0  0  0  0  0  0  0  0  0
    5.8250    4.1293    0.0000 H   0  0  0  0  0  0  0  0  0  0  0  0
    6.5380    5.3563    0.0000 H   0  0  0  0  0  0  0  0  0  0  0  0
   22.9214    8.9020    0.0000 H   0  0  0  0  0  0  0  0  0  0  0  0
    5.6720    6.4763    0.0000 H   0  0  0  0  0  0  0  0  0  0  0  0
   24.4500    6.4386    0.0000 H   0  0  0  0  0  0  0  0  0  0  0  0
   24.2037    5.6806    0.0000 H   0  0  0  0  0  0  0  0  0  0  0  0
    8.3301   10.4763    0.0000 H   0  0  0  0  0  0  0  0  0  0  0  0
    9.4040   10.4763    0.0000 H   0  0  0  0  0  0  0  0  0  0  0  0
   14.1972    0.5463    0.0000 H   0  0  0  0  0  0  0  0  0  0  0  0
   14.7341    1.4763    0.0000 H   0  0  0  0  0  0  0  0  0  0  0  0
    5.7456    7.0586    0.0000 H   0  0  0  0  0  0  0  0  0  0  0  0
    5.3471    7.7489    0.0000 H   0  0  0  0  0  0  0  0  0  0  0  0
   26.3983    5.0405    0.0000 H   0  0  0  0  0  0  0  0  0  0  0  0
   12.4651    0.5463    0.0000 H   0  0  0  0  0  0  0  0  0  0  0  0
    3.6584    7.7739    0.0000 H   0  0  0  0  0  0  0  0  0  0  0  0
    4.0569    7.0837    0.0000 H   0  0  0  0  0  0  0  0  0  0  0  0
    4.8796    8.5586    0.0000 H   0  0  0  0  0  0  0  0  0  0  0  0
    4.4810    9.2489    0.0000 H   0  0  0  0  0  0  0  0  0  0  0  0
   24.7241    7.7517    0.0000 H   0  0  0  0  0  0  0  0  0  0  0  0
   26.6017    5.6665    0.0000 H   0  0  0  0  0  0  0  0  0  0  0  0
   27.7161    3.3601    0.0000 H   0  0  0  0  0  0  0  0  0  0  0  0
   27.1828    3.9525    0.0000 H   0  0  0  0  0  0  0  0  0  0  0  0
   25.9280    8.8357    0.0000 H   0  0  0  0  0  0  0  0  0  0  0  0
   27.8056    6.7505    0.0000 H   0  0  0  0  0  0  0  0  0  0  0  0
    2.8660    5.8563    0.0000 H   0  0  0  0  0  0  0  0  0  0  0  0
    2.8660    8.8563    0.0000 H   0  0  0  0  0  0  0  0  0  0  0  0
   26.8437    1.9455    0.0000 H   0  0  0  0  0  0  0  0  0  0  0  0
   28.9241    1.4880    0.0000 H   0  0  0  0  0  0  0  0  0  0  0  0
   33.5896   -4.7993    0.0000 H   0  0  0  0  0  0  0  0  0  0  0  0
   35.0845   -3.1679    0.0000 H   0  0  0  0  0  0  0  0  0  0  0  0
   34.3049   -3.3336    0.0000 H   0  0  0  0  0  0  0  0  0  0  0  0
   32.0692   -3.3948    0.0000 H   0  0  0  0  0  0  0  0  0  0  0  0
   31.1631   -0.7146    0.0000 H   0  0  0  0  0  0  0  0  0  0  0  0
   33.1333   -6.8183    0.0000 H   0  0  0  0  0  0  0  0  0  0  0  0
   27.3917    0.9298    0.0000 H   0  0  0  0  0  0  0  0  0  0  0  0
   27.1454    0.1718    0.0000 H   0  0  0  0  0  0  0  0  0  0  0  0
   29.8752    1.1790    0.0000 H   0  0  0  0  0  0  0  0  0  0  0  0
   34.8479   -5.5542    0.0000 H   0  0  0  0  0  0  0  0  0  0  0  0
   35.2937   -7.2973    0.0000 H   0  0  0  0  0  0  0  0  0  0  0  0
   34.7603   -6.7050    0.0000 H   0  0  0  0  0  0  0  0  0  0  0  0
   30.8686   -2.9316    0.0000 H   0  0  0  0  0  0  0  0  0  0  0  0
   30.6223   -3.6897    0.0000 H   0  0  0  0  0  0  0  0  0  0  0  0
   33.3521   -2.6825    0.0000 H   0  0  0  0  0  0  0  0  0  0  0  0
   31.6076    0.6936    0.0000 H   0  0  0  0  0  0  0  0  0  0  0  0
   30.8280    0.5278    0.0000 H   0  0  0  0  0  0  0  0  0  0  0  0
   30.3206   -1.9160    0.0000 H   0  0  0  0  0  0  0  0  0  0  0  0
   34.2623   -8.3187    0.0000 H   0  0  0  0  0  0  0  0  0  0  0  0
   34.7957   -8.9110    0.0000 H   0  0  0  0  0  0  0  0  0  0  0  0
   28.3408    8.3978    0.0000 H   0  0  0  0  0  0  0  0  0  0  0  0
   28.2567   -1.0999    0.0000 H   0  0  0  0  0  0  0  0  0  0  0  0
   28.5030   -0.3418    0.0000 H   0  0  0  0  0  0  0  0  0  0  0  0
   35.6856   -5.4710    0.0000 H   0  0  0  0  0  0  0  0  0  0  0  0
   32.3902   -7.4875    0.0000 H   0  0  0  0  0  0  0  0  0  0  0  0
   31.7336   -4.9614    0.0000 H   0  0  0  0  0  0  0  0  0  0  0  0
   31.9799   -4.2033    0.0000 H   0  0  0  0  0  0  0  0  0  0  0  0
   37.4076   -5.4755    0.0000 H   0  0  0  0  0  0  0  0  0  0  0  0
   31.9765   -0.7103    0.0000 H   0  0  0  0  0  0  0  0  0  0  0  0
   32.7562   -0.5446    0.0000 H   0  0  0  0  0  0  0  0  0  0  0  0
   36.4526   -8.5845    0.0000 H   0  0  0  0  0  0  0  0  0  0  0  0
   35.9193   -7.9921    0.0000 H   0  0  0  0  0  0  0  0  0  0  0  0
   36.1535   -2.0797    0.0000 H   0  0  0  0  0  0  0  0  0  0  0  0
    2.5369   11.2863    0.0000 H   0  0  0  0  0  0  0  0  0  0  0  0
    2.0000   10.3563    0.0000 H   0  0  0  0  0  0  0  0  0  0  0  0
   33.0343   -9.5179    0.0000 H   0  0  0  0  0  0  0  0  0  0  0  0
   38.7714   -3.9887    0.0000 H   0  0  0  0  0  0  0  0  0  0  0  0
    4.2690   11.2863    0.0000 H   0  0  0  0  0  0  0  0  0  0  0  0
   31.7846   -8.4699    0.0000 H   0  0  0  0  0  0  0  0  0  0  0  0
   31.0050   -8.6356    0.0000 H   0  0  0  0  0  0  0  0  0  0  0  0
   37.6346   -1.4234    0.0000 H   0  0  0  0  0  0  0  0  0  0  0  0
   38.9436   -2.3779    0.0000 H   0  0  0  0  0  0  0  0  0  0  0  0
   35.5802   -9.9991    0.0000 H   0  0  0  0  0  0  0  0  0  0  0  0
   30.4593  -10.2339    0.0000 H   0  0  0  0  0  0  0  0  0  0  0  0
   31.2390  -10.0681    0.0000 H   0  0  0  0  0  0  0  0  0  0  0  0
   32.1918  -10.7193    0.0000 H   0  0  0  0  0  0  0  0  0  0  0  0
   33.2422  -10.4961    0.0000 H   0  0  0  0  0  0  0  0  0  0  0  0
   26.7865   -2.3503    0.0000 H   0  0  0  0  0  0  0  0  0  0  0  0
   27.5218   -2.8278    0.0000 H   0  0  0  0  0  0  0  0  0  0  0  0
   27.9994   -2.0925    0.0000 H   0  0  0  0  0  0  0  0  0  0  0  0
   30.4091   -6.4977    0.0000 H   0  0  0  0  0  0  0  0  0  0  0  0
   31.4595   -6.2745    0.0000 H   0  0  0  0  0  0  0  0  0  0  0  0
   34.4226    0.6121    0.0000 H   0  0  0  0  0  0  0  0  0  0  0  0
   37.7895  -11.0630    0.0000 H   0  0  0  0  0  0  0  0  0  0  0  0
   36.7391  -11.2863    0.0000 H   0  0  0  0  0  0  0  0  0  0  0  0
   28.6413   -9.5858    0.0000 H   0  0  0  0  0  0  0  0  0  0  0  0
   28.5955  -10.4614    0.0000 H   0  0  0  0  0  0  0  0  0  0  0  0
   29.4711  -10.5073    0.0000 H   0  0  0  0  0  0  0  0  0  0  0  0
   38.3248   -9.4157    0.0000 H   0  0  0  0  0  0  0  0  0  0  0  0
  1135  1  0  0  0  0
  1151  1  0  0  0  0
  2150  1  0  0  0  0
  2153  1  0  0  0  0
  3 57  2  0  0  0  0
  4 58  2  0  0  0  0
  5 64  2  0  0  0  0
  6 66  2  0  0  0  0
  7 75  2  0  0  0  0
  8 78  2  0  0  0  0
  9 82  1  0  0  0  0
  9213  1  0  0  0  0
 10 93  2  0  0  0  0
 11 94  2  0  0  0  0
 12107  1  0  0  0  0
 12243  1  0  0  0  0
 13107  2  0  0  0  0
 14108  2  0  0  0  0
 15115  1  0  0  0  0
 15267  1  0  0  0  0
 16117  2  0  0  0  0
 17126  2  0  0  0  0
 18129  2  0  0  0  0
 19130  2  0  0  0  0
 20132  2  0  0  0  0
 21142  2  0  0  0  0
 22147  2  0  0  0  0
 23149  1  0  0  0  0
 23299  1  0  0  0  0
 24149  2  0  0  0  0
 25 53  1  0  0  0  0
 25 56  1  0  0  0  0
 25 57  1  0  0  0  0
 26 58  1  0  0  0  0
 60 26  1  1  0  0  0
 26162  1  0  0  0  0
 59 27  1  1  0  0  0
 27 66  1  0  0  0  0
 27166  1  0  0  0  0
 28 64  1  0  0  0  0
 68 28  1  6  0  0  0
 28172  1  0  0  0  0
 67 29  1  6  0  0  0
 29 78  1  0  0  0  0
 29182  1  0  0  0  0
 30 69  1  0  0  0  0
 30 92  1  0  0  0  0
 30189  1  0  0  0  0
 31 75  1  0  0  0  0
 83 31  1  1  0  0  0
 31191  1  0  0  0  0
 74 32  1  1  0  0  0
 32 94  1  0  0  0  0
 32198  1  0  0  0  0
 33 93  1  0  0  0  0
102 33  1  6  0  0  0
 33220  1  0  0  0  0
 34 91  1  0  0  0  0
 34225  1  0  0  0  0
 34226  1  0  0  0  0
 35 92  1  0  0  0  0
 35227  1  0  0  0  0
 35228  1  0  0  0  0
 96 36  1  6  0  0  0
 36108  1  0  0  0  0
 36231  1  0  0  0  0
 37 92  2  0  0  0  0
 37232  1  0  0  0  0
 38109  1  0  0  0  0
 38124  1  0  0  0  0
 38244  1  0  0  0  0
 39112  1  0  0  0  0
 39117  1  0  0  0  0
 39245  1  0  0  0  0
116 40  1  1  0  0  0
 40129  1  0  0  0  0
 40255  1  0  0  0  0
118 41  1  6  0  0  0
 41130  1  0  0  0  0
 41256  1  0  0  0  0
120 42  1  1  0  0  0
 42126  1  0  0  0  0
 42261  1  0  0  0  0
121 43  1  6  0  0  0
 43132  1  0  0  0  0
 43264  1  0  0  0  0
123 44  1  6  0  0  0
 44142  1  0  0  0  0
 44271  1  0  0  0  0
 45136  1  0  0  0  0
 45137  1  0  0  0  0
 45274  1  0  0  0  0
 46124  1  0  0  0  0
 46280  1  0  0  0  0
 46281  1  0  0  0  0
 47124  2  0  0  0  0
 47284  1  0  0  0  0
 48140  1  0  0  0  0
 48152  1  0  0  0  0
 48289  1  0  0  0  0
143 49  1  1  0  0  0
 49292  1  0  0  0  0
 49293  1  0  0  0  0
 50147  1  0  0  0  0
 50297  1  0  0  0  0
 50298  1  0  0  0  0
 51152  1  0  0  0  0
 51300  1  0  0  0  0
 51301  1  0  0  0  0
 52152  2  0  0  0  0
 52305  1  0  0  0  0
 53 54  1  0  0  0  0
 53 58  1  6  0  0  0
 53154  1  0  0  0  0
 54 55  1  0  0  0  0
 54155  1  0  0  0  0
 54156  1  0  0  0  0
 55 56  1  0  0  0  0
 55157  1  0  0  0  0
 55158  1  0  0  0  0
 56159  1  0  0  0  0
 56160  1  0  0  0  0
 57 59  1  0  0  0  0
 59 61  1  0  0  0  0
 59161  1  0  0  0  0
 60 62  1  0  0  0  0
 60 64  1  0  0  0  0
 60163  1  0  0  0  0
 61 63  1  0  0  0  0
 61164  1  0  0  0  0
 61165  1  0  0  0  0
 62 65  1  0  0  0  0
 62167  1  0  0  0  0
 62168  1  0  0  0  0
 63 71  2  0  0  0  0
 63 72  1  0  0  0  0
 65 69  1  0  0  0  0
 65169  1  0  0  0  0
 65170  1  0  0  0  0
 66 67  1  0  0  0  0
 67 70  1  0  0  0  0
 67171  1  0  0  0  0
 68 73  1  0  0  0  0
 68 75  1  0  0  0  0
 68173  1  0  0  0  0
 69174  1  0  0  0  0
 69175  1  0  0  0  0
 70 81  1  0  0  0  0
 70176  1  0  0  0  0
 70177  1  0  0  0  0
 71 79  1  0  0  0  0
 71178  1  0  0  0  0
 72 80  2  0  0  0  0
 72179  1  0  0  0  0
 73 76  1  0  0  0  0
 73180  1  0  0  0  0
 73181  1  0  0  0  0
 74 77  1  0  0  0  0
 74 78  1  0  0  0  0
 74183  1  0  0  0  0
 76 84  1  0  0  0  0
 76184  1  0  0  0  0
 76185  1  0  0  0  0
 77 85  1  0  0  0  0
 77 87  1  6  0  0  0
 77186  1  0  0  0  0
 79 82  2  0  0  0  0
 79187  1  0  0  0  0
 80 82  1  0  0  0  0
 80188  1  0  0  0  0
 81 89  2  0  0  0  0
 81 90  1  0  0  0  0
 83 86  1  0  0  0  0
 83 93  1  0  0  0  0
 83190  1  0  0  0  0
 84 91  1  0  0  0  0
 84192  1  0  0  0  0
 84193  1  0  0  0  0
 85 95  1  0  0  0  0
 85194  1  0  0  0  0
 85195  1  0  0  0  0
 86 88  1  0  0  0  0
 86196  1  0  0  0  0
 86197  1  0  0  0  0
 87199  1  0  0  0  0
 87200  1  0  0  0  0
 87201  1  0  0  0  0
 88 99  1  0  0  0  0
 88100  1  0  0  0  0
 88202  1  0  0  0  0
 89 97  1  0  0  0  0
 89203  1  0  0  0  0
 90 98  2  0  0  0  0
 90204  1  0  0  0  0
 91205  1  0  0  0  0
 91206  1  0  0  0  0
 94 96  1  0  0  0  0
 95207  1  0  0  0  0
 95208  1  0  0  0  0
 95209  1  0  0  0  0
 96103  1  0  0  0  0
 96210  1  0  0  0  0
 97101  2  0  0  0  0
 97211  1  0  0  0  0
 98101  1  0  0  0  0
 98212  1  0  0  0  0
 99214  1  0  0  0  0
 99215  1  0  0  0  0
 99216  1  0  0  0  0
100217  1  0  0  0  0
100218  1  0  0  0  0
100219  1  0  0  0  0
101221  1  0  0  0  0
102104  1  0  0  0  0
102107  1  0  0  0  0
102222  1  0  0  0  0
103105  1  0  0  0  0
103223  1  0  0  0  0
103224  1  0  0  0  0
104106  1  0  0  0  0
104229  1  0  0  0  0
104230  1  0  0  0  0
105110  2  0  0  0  0
105111  1  0  0  0  0
106109  1  0  0  0  0
106233  1  0  0  0  0
106234  1  0  0  0  0
108112  1  0  0  0  0
109235  1  0  0  0  0
109236  1  0  0  0  0
110113  1  0  0  0  0
110237  1  0  0  0  0
111114  2  0  0  0  0
111238  1  0  0  0  0
112239  1  0  0  0  0
112240  1  0  0  0  0
113115  2  0  0  0  0
113241  1  0  0  0  0
114115  1  0  0  0  0
114242  1  0  0  0  0
116117  1  0  0  0  0
116122  1  0  0  0  0
116246  1  0  0  0  0
118119  1  0  0  0  0
118126  1  0  0  0  0
118247  1  0  0  0  0
119125  1  0  0  0  0
119248  1  0  0  0  0
119249  1  0  0  0  0
120128  1  0  0  0  0
120132  1  0  0  0  0
120250  1  0  0  0  0
121129  1  0  0  0  0
121131  1  0  0  0  0
121251  1  0  0  0  0
122135  1  0  0  0  0
122253  1  0  0  0  0
122254  1  0  0  0  0
123127  1  0  0  0  0
123130  1  0  0  0  0
123252  1  0  0  0  0
125133  1  0  0  0  0
125137  2  0  0  0  0
127134  1  0  0  0  0
127257  1  0  0  0  0
127258  1  0  0  0  0
128138  1  0  0  0  0
128259  1  0  0  0  0
128260  1  0  0  0  0
131139  1  0  0  0  0
131262  1  0  0  0  0
131263  1  0  0  0  0
133136  1  0  0  0  0
133141  2  0  0  0  0
134140  1  0  0  0  0
134265  1  0  0  0  0
134266  1  0  0  0  0
135268  1  0  0  0  0
135269  1  0  0  0  0
136144  2  0  0  0  0
137270  1  0  0  0  0
138147  1  0  0  0  0
138272  1  0  0  0  0
138273  1  0  0  0  0
139149  1  0  0  0  0
139275  1  0  0  0  0
139276  1  0  0  0  0
140277  1  0  0  0  0
140278  1  0  0  0  0
141146  1  0  0  0  0
141279  1  0  0  0  0
142143  1  0  0  0  0
143145  1  0  0  0  0
143282  1  0  0  0  0
144148  1  0  0  0  0
144283  1  0  0  0  0
145150  1  0  0  0  0
145285  1  0  0  0  0
145286  1  0  0  0  0
146148  2  0  0  0  0
146287  1  0  0  0  0
148288  1  0  0  0  0
150290  1  0  0  0  0
150291  1  0  0  0  0
151294  1  0  0  0  0
151295  1  0  0  0  0
151296  1  0  0  0  0
153302  1  0  0  0  0
153303  1  0  0  0  0
153304  1  0  0  0  0
M  END
> <PUBCHEM_COMPOUND_CID>
146675088

> <PUBCHEM_COMPOUND_CANONICALIZED>
1

> <PUBCHEM_CACTVS_COMPLEXITY>
4510

> <PUBCHEM_CACTVS_HBOND_ACCEPTOR>
29

> <PUBCHEM_CACTVS_HBOND_DONOR>
31

> <PUBCHEM_CACTVS_ROTATABLE_BOND>
73

> <PUBCHEM_CACTVS_SUBSKEYS>
AAADcfB//gBgAAAAAAAAAAAAAAAAAWLAAAAwYMGAAAAAAFgB9AAAHgQQCAAADSzF3gS/zvPJkgioAzX3fACCgCCxIjAJ2aG+bJiKZvLimbOUcAhk1hPY2Ae83+KOoAAAAAACAABAAAAAAAQAAAAAAAAAAA==

> <PUBCHEM_IUPAC_OPENEYE_NAME>
(4S)-4-[[(2S)-5-amino-2-[[(2S)-2-[[(2S)-2-[[(2S)-2-amino-4-methylsulfanyl-butanoyl]amino]-5-guanidino-pentanoyl]amino]-3-(1H-indol-3-yl)propanoyl]amino]-5-oxo-pentanoyl]amino]-5-[[(1S)-1-[[2-[[(1S)-2-[[(1S,2S)-1-[[(1S)-2-[[(1S)-2-[(2S)-2-[[(1S)-1-[[(1S)-5-amino-1-[[(1S)-1-[[(1S)-1-carboxy-4-guanidino-butyl]carbamoyl]-3-methyl-butyl]carbamoyl]pentyl]carbamoyl]-4-guanidino-butyl]carbamoyl]pyrrolidin-1-yl]-1-[(4-hydroxyphenyl)methyl]-2-oxo-ethyl]amino]-1-benzyl-2-oxo-ethyl]carbamoyl]-2-methyl-butyl]amino]-1-[(4-hydroxyphenyl)methyl]-2-oxo-ethyl]amino]-2-oxo-ethyl]carbamoyl]-3-methylsulfanyl-propyl]amino]-5-oxo-pentanoic acid

> <PUBCHEM_IUPAC_CAS_NAME>
(4S)-4-[[(2S)-5-amino-2-[[(2S)-2-[[(2S)-2-[[(2S)-2-amino-4-(methylthio)-1-oxobutyl]amino]-5-carbamimidamido-1-oxopentyl]amino]-3-(1H-indol-3-yl)-1-oxopropyl]amino]-1,5-dioxopentyl]amino]-5-[[(2S)-1-[[2-[[(2S)-1-[[(2S,3S)-1-[[(2S)-1-[[(2S)-1-[(2S)-2-[[[(2S)-1-[[(2S)-6-amino-1-[[(2S)-1-[[(1S)-4-carbamimidamido-1-carboxybutyl]amino]-4-methyl-1-oxopentan-2-yl]amino]-1-oxohexan-2-yl]amino]-5-carbamimidamido-1-oxopentan-2-yl]amino]-oxomethyl]-1-pyrrolidinyl]-3-(4-hydroxyphenyl)-1-oxopropan-2-yl]amino]-1-oxo-3-phenylpropan-2-yl]amino]-3-methyl-1-oxopentan-2-yl]amino]-3-(4-hydroxyphenyl)-1-oxopropan-2-yl]amino]-2-oxoethyl]amino]-4-(methylthio)-1-oxobutan-2-yl]amino]-5-oxopentanoic acid

> <PUBCHEM_IUPAC_NAME_MARKUP>
(4<I>S</I>)-4-[[(2<I>S</I>)-5-amino-2-[[(2<I>S</I>)-2-[[(2<I>S</I>)-2-[[(2<I>S</I>)-2-amino-4-methylsulfanylbutanoyl]amino]-5-carbamimidamidopentanoyl]amino]-3-(1<I>H</I>-indol-3-yl)propanoyl]amino]-5-oxopentanoyl]amino]-5-[[(2<I>S</I>)-1-[[2-[[(2<I>S</I>)-1-[[(2<I>S</I>,3<I>S</I>)-1-[[(2<I>S</I>)-1-[[(2<I>S</I>)-1-[(2<I>S</I>)-2-[[(2<I>S</I>)-1-[[(2<I>S</I>)-6-amino-1-[[(2<I>S</I>)-1-[[(1<I>S</I>)-4-carbamimidamido-1-carboxybutyl]amino]-4-methyl-1-oxopentan-2-yl]amino]-1-oxohexan-2-yl]amino]-5-carbamimidamido-1-oxopentan-2-yl]carbamoyl]pyrrolidin-1-yl]-3-(4-hydroxyphenyl)-1-oxopropan-2-yl]amino]-1-oxo-3-phenylpropan-2-yl]amino]-3-methyl-1-oxopentan-2-yl]amino]-3-(4-hydroxyphenyl)-1-oxopropan-2-yl]amino]-2-oxoethyl]amino]-4-methylsulfanyl-1-oxobutan-2-yl]amino]-5-oxopentanoic acid

> <PUBCHEM_IUPAC_NAME>
(4S)-4-[[(2S)-5-amino-2-[[(2S)-2-[[(2S)-2-[[(2S)-2-amino-4-methylsulfanylbutanoyl]amino]-5-carbamimidamidopentanoyl]amino]-3-(1H-indol-3-yl)propanoyl]amino]-5-oxopentanoyl]amino]-5-[[(2S)-1-[[2-[[(2S)-1-[[(2S,3S)-1-[[(2S)-1-[[(2S)-1-[(2S)-2-[[(2S)-1-[[(2S)-6-amino-1-[[(2S)-1-[[(1S)-4-carbamimidamido-1-carboxybutyl]amino]-4-methyl-1-oxopentan-2-yl]amino]-1-oxohexan-2-yl]amino]-5-carbamimidamido-1-oxopentan-2-yl]carbamoyl]pyrrolidin-1-yl]-3-(4-hydroxyphenyl)-1-oxopropan-2-yl]amino]-1-oxo-3-phenylpropan-2-yl]amino]-3-methyl-1-oxopentan-2-yl]amino]-3-(4-hydroxyphenyl)-1-oxopropan-2-yl]amino]-2-oxoethyl]amino]-4-methylsulfanyl-1-oxobutan-2-yl]amino]-5-oxopentanoic acid

> <PUBCHEM_IUPAC_SYSTEMATIC_NAME>
(4S)-4-[[(2S)-5-azanyl-2-[[(2S)-2-[[(2S)-2-[[(2S)-2-azanyl-4-methylsulfanyl-butanoyl]amino]-5-carbamimidamido-pentanoyl]amino]-3-(1H-indol-3-yl)propanoyl]amino]-5-oxidanylidene-pentanoyl]amino]-5-[[(2S)-1-[[2-[[(2S)-1-[[(2S,3S)-1-[[(2S)-1-[[(2S)-1-[(2S)-2-[[(2S)-1-[[(2S)-6-azanyl-1-[[(2S)-1-[[(2S)-5-carbamimidamido-1-oxidanyl-1-oxidanylidene-pentan-2-yl]amino]-4-methyl-1-oxidanylidene-pentan-2-yl]amino]-1-oxidanylidene-hexan-2-yl]amino]-5-carbamimidamido-1-oxidanylidene-pentan-2-yl]carbamoyl]pyrrolidin-1-yl]-3-(4-hydroxyphenyl)-1-oxidanylidene-propan-2-yl]amino]-1-oxidanylidene-3-phenyl-propan-2-yl]amino]-3-methyl-1-oxidanylidene-pentan-2-yl]amino]-3-(4-hydroxyphenyl)-1-oxidanylidene-propan-2-yl]amino]-2-oxidanylidene-ethyl]amino]-4-methylsulfanyl-1-oxidanylidene-butan-2-yl]amino]-5-oxidanylidene-pentanoic acid

> <PUBCHEM_IUPAC_TRADITIONAL_NAME>
(4S)-4-[[(2S)-5-amino-2-[[(2S)-2-[[(2S)-2-[[(2S)-2-amino-4-(methylthio)butanoyl]amino]-5-guanidino-pentanoyl]amino]-3-(1H-indol-3-yl)propanoyl]amino]-5-keto-pentanoyl]amino]-5-[[(1S)-1-[[2-[[(1S)-2-[[(1S,2S)-1-[[(1S)-2-[[(1S)-2-[(2S)-2-[[(1S)-1-[[(1S)-5-amino-1-[[(1S)-1-[[(1S)-1-carboxy-4-guanidino-butyl]carbamoyl]-3-methyl-butyl]carbamoyl]pentyl]carbamoyl]-4-guanidino-butyl]carbamoyl]pyrrolidino]-1-(4-hydroxybenzyl)-2-keto-ethyl]amino]-1-benzyl-2-keto-ethyl]carbamoyl]-2-methyl-butyl]amino]-1-(4-hydroxybenzyl)-2-keto-ethyl]amino]-2-keto-ethyl]carbamoyl]-3-(methylthio)propyl]amino]-5-keto-valeric acid

> <PUBCHEM_IUPAC_INCHI>
InChI=1S/C101H152N28O22S2/c1-7-57(4)83(96(148)126-76(50-58-19-9-8-10-20-58)92(144)127-78(52-60-30-34-63(131)35-31-60)97(149)129-46-18-27-79(129)95(147)122-69(25-16-44-112-100(107)108)86(138)118-67(23-13-14-42-102)87(139)124-74(49-56(2)3)91(143)123-73(98(150)151)26-17-45-113-101(109)110)128-94(146)75(51-59-28-32-62(130)33-29-59)116-81(133)55-115-85(137)72(41-48-153-6)121-90(142)71(37-39-82(134)135)119-89(141)70(36-38-80(104)132)120-93(145)77(53-61-54-114-66-22-12-11-21-64(61)66)125-88(140)68(24-15-43-111-99(105)106)117-84(136)65(103)40-47-152-5/h8-12,19-22,28-35,54,56-57,65,67-79,83,114,130-131H,7,13-18,23-27,36-53,55,102-103H2,1-6H3,(H2,104,132)(H,115,137)(H,116,133)(H,117,136)(H,118,138)(H,119,141)(H,120,145)(H,121,142)(H,122,147)(H,123,143)(H,124,139)(H,125,140)(H,126,148)(H,127,144)(H,128,146)(H,134,135)(H,150,151)(H4,105,106,111)(H4,107,108,112)(H4,109,110,113)/t57-,65-,67-,68-,69-,70-,71-,72-,73-,74-,75-,76-,77-,78-,79-,83-/m0/s1

> <PUBCHEM_IUPAC_INCHIKEY>
WYTHCOXVWRKRAH-LOKRTKBUSA-N

> <PUBCHEM_XLOGP3_AA>
-3.9

> <PUBCHEM_EXACT_MASS>
2174.1110958

> <PUBCHEM_MOLECULAR_FORMULA>
C101H152N28O22S2

> <PUBCHEM_MOLECULAR_WEIGHT>
2174.6

> <PUBCHEM_SMILES>
CC[C@H](C)[C@@H](C(=O)N[C@@H](CC1=CC=CC=C1)C(=O)N[C@@H](CC2=CC=C(C=C2)O)C(=O)N3CCC[C@H]3C(=O)N[C@@H](CCCNC(=N)N)C(=O)N[C@@H](CCCCN)C(=O)N[C@@H](CC(C)C)C(=O)N[C@@H](CCCNC(=N)N)C(=O)O)NC(=O)[C@H](CC4=CC=C(C=C4)O)NC(=O)CNC(=O)[C@H](CCSC)NC(=O)[C@H](CCC(=O)O)NC(=O)[C@H](CCC(=O)N)NC(=O)[C@H](CC5=CNC6=CC=CC=C65)NC(=O)[C@H](CCCNC(=N)N)NC(=O)[C@H](CCSC)N

> <PUBCHEM_CONNECTIVITY_SMILES>
CCC(C)C(C(=O)NC(CC1=CC=CC=C1)C(=O)NC(CC2=CC=C(C=C2)O)C(=O)N3CCCC3C(=O)NC(CCCNC(=N)N)C(=O)NC(CCCCN)C(=O)NC(CC(C)C)C(=O)NC(CCCNC(=N)N)C(=O)O)NC(=O)C(CC4=CC=C(C=C4)O)NC(=O)CNC(=O)C(CCSC)NC(=O)C(CCC(=O)O)NC(=O)C(CCC(=O)N)NC(=O)C(CC5=CNC6=CC=CC=C65)NC(=O)C(CCCNC(=N)N)NC(=O)C(CCSC)N

> <PUBCHEM_CACTVS_TPSA>
890

> <PUBCHEM_MONOISOTOPIC_WEIGHT>
2173.1077409

> <PUBCHEM_TOTAL_CHARGE>
0

> <PUBCHEM_HEAVY_ATOM_COUNT>
153

> <PUBCHEM_ATOM_DEF_STEREO_COUNT>
16

> <PUBCHEM_ATOM_UDEF_STEREO_COUNT>
0

> <PUBCHEM_BOND_DEF_STEREO_COUNT>
0

> <PUBCHEM_BOND_UDEF_STEREO_COUNT>
0

> <PUBCHEM_ISOTOPIC_ATOM_COUNT>
0

> <PUBCHEM_COMPONENT_COUNT>
1

> <PUBCHEM_CACTVS_TAUTO_COUNT>
-1

> <PUBCHEM_COORDINATE_TYPE>
1
5
255

> <PUBCHEM_BONDANNOTATIONS>
105  110  8
105  111  8
110  113  8
111  114  8
113  115  8
114  115  8
125  133  8
125  137  8
133  136  8
133  141  8
136  144  8
141  146  8
144  148  8
146  148  8
60  26  5
59  27  5
68  28  6
67  29  6
83  31  5
74  32  5
102  33  6
96  36  6
116  40  5
118  41  6
120  42  5
121  43  6
123  44  6
45  136  8
45  137  8
143  49  5
53  58  6
63  71  8
63  72  8
71  79  8
72  80  8
77  87  6
79  82  8
80  82  8
81  89  8
81  90  8
89  97  8
90  98  8
97  101  8
98  101  8

$$$$
163335335
  -OEChem-11132518582D

313317  0     1  0  0  0  0  0999 V2000
   18.6946   16.0489    0.0000 S   0  0  0  0  0  0  0  0  0  0  0  0
   24.0838    7.4492    0.0000 S   0  0  0  0  0  0  0  0  0  0  0  0
    0.0000   19.7584    0.0000 F   0  0  0  0  0  0  0  0  0  0  0  0
    0.3660   21.1244    0.0000 F   0  0  0  0  0  0  0  0  0  0  0  0
    1.3660   19.3923    0.0000 F   0  0  0  0  0  0  0  0  0  0  0  0
    9.0341   25.5186    0.0000 O   0  0  0  0  0  0  0  0  0  0  0  0
    9.5903   26.7620    0.0000 O   0  0  0  0  0  0  0  0  0  0  0  0
   12.0948   29.3558    0.0000 O   0  0  0  0  0  0  0  0  0  0  0  0
    8.7700   21.9228    0.0000 O   0  0  0  0  0  0  0  0  0  0  0  0
    9.5992   31.9582    0.0000 O   0  0  0  0  0  0  0  0  0  0  0  0
   11.7520   19.8961    0.0000 O   0  0  0  0  0  0  0  0  0  0  0  0
    5.7414   26.5948    0.0000 O   0  0  0  0  0  0  0  0  0  0  0  0
   10.6052   35.4205    0.0000 O   0  0  0  0  0  0  0  0  0  0  0  0
   14.9982   21.4653    0.0000 O   0  0  0  0  0  0  0  0  0  0  0  0
   14.1067   36.2805    0.0000 O   0  0  0  0  0  0  0  0  0  0  0  0
   14.1037   34.5484    0.0000 O   0  0  0  0  0  0  0  0  0  0  0  0
   16.6910   18.2818    0.0000 O   0  0  0  0  0  0  0  0  0  0  0  0
   17.5765   23.7787    0.0000 O   0  0  0  0  0  0  0  0  0  0  0  0
   14.7805   15.2241    0.0000 O   0  0  0  0  0  0  0  0  0  0  0  0
   18.8341    8.1129    0.0000 O   0  0  0  0  0  0  0  0  0  0  0  0
   17.7626   13.1974    0.0000 O   0  0  0  0  0  0  0  0  0  0  0  0
   19.5020    7.3686    0.0000 O   0  0  0  0  0  0  0  0  0  0  0  0
   15.8521   10.1396    0.0000 O   0  0  0  0  0  0  0  0  0  0  0  0
   21.1948    4.1852    0.0000 O   0  0  0  0  0  0  0  0  0  0  0  0
   13.1807   13.1168    0.0000 O   0  0  0  0  0  0  0  0  0  0  0  0
   20.4340   10.2202    0.0000 O   0  0  0  0  0  0  0  0  0  0  0  0
   13.5379   11.4220    0.0000 O   0  0  0  0  0  0  0  0  0  0  0  0
    2.5981   20.2584    0.0000 O   0  0  0  0  0  0  0  0  0  0  0  0
    1.7320   21.7584    0.0000 O   0  0  0  0  0  0  0  0  0  0  0  0
   10.6804   24.9806    0.0000 N   0  0  0  0  0  0  0  0  0  0  0  0
   11.0918   27.6254    0.0000 N   0  0  0  0  0  0  0  0  0  0  0  0
   10.0591   23.0795    0.0000 N   0  0  0  0  0  0  0  0  0  0  0  0
   10.5963   30.2244    0.0000 N   0  0  0  0  0  0  0  0  0  0  0  0
   11.3948   21.5909    0.0000 N   0  0  0  0  0  0  0  0  0  0  0  0
    7.5963   30.2296    0.0000 N   0  0  0  0  0  0  0  0  0  0  0  0
   11.1008   32.8216    0.0000 N   0  0  0  0  0  0  0  0  0  0  0  0
   13.7090   20.3085    0.0000 N   0  0  0  0  0  0  0  0  0  0  0  0
   12.1037   34.5519    0.0000 N   0  0  0  0  0  0  0  0  0  0  0  0
   15.1007   32.8147    0.0000 N   0  0  0  0  0  0  0  0  0  0  0  0
    7.5993   31.9616    0.0000 N   0  0  0  0  0  0  0  0  0  0  0  0
   15.0447   18.8199    0.0000 N   0  0  0  0  0  0  0  0  0  0  0  0
    9.0978   31.0930    0.0000 N   0  0  0  0  0  0  0  0  0  0  0  0
   12.6112   38.8812    0.0000 N   0  0  0  0  0  0  0  0  0  0  0  0
   16.0697   16.3808    0.0000 N   0  0  0  0  0  0  0  0  0  0  0  0
   16.1162   13.7355    0.0000 N   0  0  0  0  0  0  0  0  0  0  0  0
   18.2128    6.2119    0.0000 N   0  0  0  0  0  0  0  0  0  0  0  0
   17.1878    8.6510    0.0000 N   0  0  0  0  0  0  0  0  0  0  0  0
   17.1413   11.2963    0.0000 N   0  0  0  0  0  0  0  0  0  0  0  0
   20.8377    5.8800    0.0000 N   0  0  0  0  0  0  0  0  0  0  0  0
   16.2558    4.1900    0.0000 N   0  0  0  0  0  0  0  0  0  0  0  0
   12.6142   40.6132    0.0000 N   0  0  0  0  0  0  0  0  0  0  0  0
   11.1127   39.7498    0.0000 N   0  0  0  0  0  0  0  0  0  0  0  0
   20.5735    2.2842    0.0000 N   0  0  0  0  0  0  0  0  0  0  0  0
   23.1518    4.5976    0.0000 N   0  0  0  0  0  0  0  0  0  0  0  0
   20.0768   11.9150    0.0000 N   0  0  0  0  0  0  0  0  0  0  0  0
   20.9307    0.5893    0.0000 N   0  0  0  0  0  0  0  0  0  0  0  0
   19.2843    1.1274    0.0000 N   0  0  0  0  0  0  0  0  0  0  0  0
   11.0888   25.8934    0.0000 C   0  0  1  0  0  0  0  0  0  0  0  0
   12.0831   25.7871    0.0000 C   0  0  0  0  0  0  0  0  0  0  0  0
   12.2893   24.8086    0.0000 C   0  0  0  0  0  0  0  0  0  0  0  0
   11.4224   24.3101    0.0000 C   0  0  0  0  0  0  0  0  0  0  0  0
    9.7019   24.7743    0.0000 C   0  0  0  0  0  0  0  0  0  0  0  0
   10.5903   26.7603    0.0000 C   0  0  0  0  0  0  0  0  0  0  0  0
    9.3913   23.8238    0.0000 C   0  0  2  0  0  0  0  0  0  0  0  0
   10.5933   28.4923    0.0000 C   0  0  1  0  0  0  0  0  0  0  0  0
    8.4128   23.6176    0.0000 C   0  0  0  0  0  0  0  0  0  0  0  0
    9.5933   28.4941    0.0000 C   0  0  0  0  0  0  0  0  0  0  0  0
    7.7449   24.3619    0.0000 C   0  0  0  0  0  0  0  0  0  0  0  0
   11.0948   29.3575    0.0000 C   0  0  0  0  0  0  0  0  0  0  0  0
    9.0948   29.3610    0.0000 C   0  0  0  0  0  0  0  0  0  0  0  0
    9.7485   22.1290    0.0000 C   0  0  0  0  0  0  0  0  0  0  0  0
   10.4163   21.3847    0.0000 C   0  0  2  0  0  0  0  0  0  0  0  0
   11.0978   31.0895    0.0000 C   0  0  1  0  0  0  0  0  0  0  0  0
    8.0948   29.3627    0.0000 C   0  0  0  0  0  0  0  0  0  0  0  0
   10.1056   20.4342    0.0000 C   0  0  0  0  0  0  0  0  0  0  0  0
    8.0556   25.3124    0.0000 C   0  0  0  0  0  0  0  0  0  0  0  0
    6.7664   24.1557    0.0000 C   0  0  0  0  0  0  0  0  0  0  0  0
   12.0978   31.0878    0.0000 C   0  0  0  0  0  0  0  0  0  0  0  0
   13.0412   21.0528    0.0000 C   0  0  2  0  0  0  0  0  0  0  0  0
   10.5993   31.9564    0.0000 C   0  0  0  0  0  0  0  0  0  0  0  0
   12.5992   31.9530    0.0000 C   0  0  0  0  0  0  0  0  0  0  0  0
   12.0627   20.8466    0.0000 C   0  0  0  0  0  0  0  0  0  0  0  0
   13.3518   22.0034    0.0000 C   0  0  2  0  0  0  0  0  0  0  0  0
    7.3878   26.0567    0.0000 C   0  0  0  0  0  0  0  0  0  0  0  0
    6.0986   24.9000    0.0000 C   0  0  0  0  0  0  0  0  0  0  0  0
    9.1271   20.2280    0.0000 C   0  0  0  0  0  0  0  0  0  0  0  0
    6.4092   25.8505    0.0000 C   0  0  0  0  0  0  0  0  0  0  0  0
   10.6023   33.6885    0.0000 C   0  0  1  0  0  0  0  0  0  0  0  0
   13.5992   31.9512    0.0000 C   0  0  0  0  0  0  0  0  0  0  0  0
   12.6840   22.7477    0.0000 C   0  0  0  0  0  0  0  0  0  0  0  0
    9.6022   33.6902    0.0000 C   0  0  0  0  0  0  0  0  0  0  0  0
   14.3303   22.2096    0.0000 C   0  0  0  0  0  0  0  0  0  0  0  0
    9.1038   34.5571    0.0000 C   0  0  0  0  0  0  0  0  0  0  0  0
    8.4593   20.9723    0.0000 C   0  0  0  0  0  0  0  0  0  0  0  0
    8.8165   19.2774    0.0000 C   0  0  0  0  0  0  0  0  0  0  0  0
   14.1007   32.8164    0.0000 C   0  0  0  0  0  0  0  0  0  0  0  0
    8.0978   31.0947    0.0000 C   0  0  0  0  0  0  0  0  0  0  0  0
   11.1037   34.5536    0.0000 C   0  0  0  0  0  0  0  0  0  0  0  0
   14.6875   20.5147    0.0000 C   0  0  0  0  0  0  0  0  0  0  0  0
   12.9946   23.6982    0.0000 C   0  0  0  0  0  0  0  0  0  0  0  0
   15.3554   19.7704    0.0000 C   0  0  2  0  0  0  0  0  0  0  0  0
    7.4808   20.7660    0.0000 C   0  0  0  0  0  0  0  0  0  0  0  0
    7.8380   19.0712    0.0000 C   0  0  0  0  0  0  0  0  0  0  0  0
    8.1038   34.5588    0.0000 C   0  0  0  0  0  0  0  0  0  0  0  0
    9.6052   35.4223    0.0000 C   0  0  0  0  0  0  0  0  0  0  0  0
    7.1701   19.8155    0.0000 C   0  0  0  0  0  0  0  0  0  0  0  0
   12.6052   35.4171    0.0000 C   0  0  1  0  0  0  0  0  0  0  0  0
   16.3339   19.9767    0.0000 C   0  0  0  0  0  0  0  0  0  0  0  0
   12.1067   36.2840    0.0000 C   0  0  0  0  0  0  0  0  0  0  0  0
   16.6445   20.9272    0.0000 C   0  0  0  0  0  0  0  0  0  0  0  0
   12.6082   37.1491    0.0000 C   0  0  0  0  0  0  0  0  0  0  0  0
   13.6052   35.4153    0.0000 C   0  0  0  0  0  0  0  0  0  0  0  0
   15.7125   18.0756    0.0000 C   0  0  0  0  0  0  0  0  0  0  0  0
   12.1097   38.0160    0.0000 C   0  0  0  0  0  0  0  0  0  0  0  0
   17.6230   21.1334    0.0000 C   0  0  0  0  0  0  0  0  0  0  0  0
   15.9767   21.6715    0.0000 C   0  0  0  0  0  0  0  0  0  0  0  0
   15.4019   17.1251    0.0000 C   0  0  0  0  0  0  0  0  0  0  0  0
   17.9337   22.0839    0.0000 C   0  0  0  0  0  0  0  0  0  0  0  0
   16.2873   22.6220    0.0000 C   0  0  0  0  0  0  0  0  0  0  0  0
   17.2658   22.8282    0.0000 C   0  0  0  0  0  0  0  0  0  0  0  0
   16.4269   14.6860    0.0000 C   0  0  2  0  0  0  0  0  0  0  0  0
   15.7591   15.4303    0.0000 C   0  0  0  0  0  0  0  0  0  0  0  0
   17.5450    6.9562    0.0000 C   0  0  1  0  0  0  0  0  0  0  0  0
   16.5665    6.7500    0.0000 C   0  0  0  0  0  0  0  0  0  0  0  0
   12.1127   39.7481    0.0000 C   0  0  0  0  0  0  0  0  0  0  0  0
   17.4054   14.8922    0.0000 C   0  0  0  0  0  0  0  0  0  0  0  0
   17.4984    9.6015    0.0000 C   0  0  1  0  0  0  0  0  0  0  0  0
   16.4734   12.0406    0.0000 C   0  0  2  0  0  0  0  0  0  0  0  0
   19.8591    5.6738    0.0000 C   0  0  1  0  0  0  0  0  0  0  0  0
   16.2558    5.7994    0.0000 C   0  0  0  0  0  0  0  0  0  0  0  0
   17.8556    7.9067    0.0000 C   0  0  0  0  0  0  0  0  0  0  0  0
   16.7841   12.9912    0.0000 C   0  0  0  0  0  0  0  0  0  0  0  0
   19.5485    4.7233    0.0000 C   0  0  0  0  0  0  0  0  0  0  0  0
   18.4769    9.8077    0.0000 C   0  0  0  0  0  0  0  0  0  0  0  0
   15.4949   11.8344    0.0000 C   0  0  0  0  0  0  0  0  0  0  0  0
   19.1913    6.4181    0.0000 C   0  0  0  0  0  0  0  0  0  0  0  0
   16.8306   10.3458    0.0000 C   0  0  0  0  0  0  0  0  0  0  0  0
   15.3096    5.4947    0.0000 C   0  0  0  0  0  0  0  0  0  0  0  0
   17.7161   15.8427    0.0000 C   0  0  0  0  0  0  0  0  0  0  0  0
   20.2163    3.9790    0.0000 C   0  0  0  0  0  0  0  0  0  0  0  0
   15.3096    4.4947    0.0000 C   0  0  0  0  0  0  0  0  0  0  0  0
   16.8394    4.9947    0.0000 C   0  0  0  0  0  0  0  0  0  0  0  0
   18.7876   10.7583    0.0000 C   0  0  0  0  0  0  0  0  0  0  0  0
   14.8271   12.5787    0.0000 C   0  0  0  0  0  0  0  0  0  0  0  0
   19.9057    3.0284    0.0000 C   0  0  0  0  0  0  0  0  0  0  0  0
   14.4435    5.9947    0.0000 C   0  0  0  0  0  0  0  0  0  0  0  0
   21.5055    5.1357    0.0000 C   0  0  0  0  0  0  0  0  0  0  0  0
   22.4840    5.3419    0.0000 C   0  0  2  0  0  0  0  0  0  0  0  0
   14.4435    3.9947    0.0000 C   0  0  0  0  0  0  0  0  0  0  0  0
   22.7947    6.2924    0.0000 C   0  0  0  0  0  0  0  0  0  0  0  0
   13.5775    5.4947    0.0000 C   0  0  0  0  0  0  0  0  0  0  0  0
   19.7661   10.9645    0.0000 C   0  0  0  0  0  0  0  0  0  0  0  0
   13.5775    4.4947    0.0000 C   0  0  0  0  0  0  0  0  0  0  0  0
   13.8486   12.3725    0.0000 C   0  0  0  0  0  0  0  0  0  0  0  0
   23.7732    6.4987    0.0000 C   0  0  0  0  0  0  0  0  0  0  0  0
   19.0052   16.9995    0.0000 C   0  0  0  0  0  0  0  0  0  0  0  0
   20.2629    1.3336    0.0000 C   0  0  0  0  0  0  0  0  0  0  0  0
   25.0623    7.6554    0.0000 C   0  0  0  0  0  0  0  0  0  0  0  0
    0.8660   20.2584    0.0000 C   0  0  0  0  0  0  0  0  0  0  0  0
    1.7320   20.7584    0.0000 C   0  0  0  0  0  0  0  0  0  0  0  0
   10.4696   25.8620    0.0000 H   0  0  0  0  0  0  0  0  0  0  0  0
   12.6998   25.8509    0.0000 H   0  0  0  0  0  0  0  0  0  0  0  0
   12.0842   26.4071    0.0000 H   0  0  0  0  0  0  0  0  0  0  0  0
   12.5405   24.2418    0.0000 H   0  0  0  0  0  0  0  0  0  0  0  0
   12.8793   24.9992    0.0000 H   0  0  0  0  0  0  0  0  0  0  0  0
   10.9610   23.8961    0.0000 H   0  0  0  0  0  0  0  0  0  0  0  0
   11.7860   23.8079    0.0000 H   0  0  0  0  0  0  0  0  0  0  0  0
    9.9980   23.9517    0.0000 H   0  0  0  0  0  0  0  0  0  0  0  0
   11.7118   27.6244    0.0000 H   0  0  0  0  0  0  0  0  0  0  0  0
   10.2823   27.9559    0.0000 H   0  0  0  0  0  0  0  0  0  0  0  0
    7.8864   23.2900    0.0000 H   0  0  0  0  0  0  0  0  0  0  0  0
    8.6440   23.0423    0.0000 H   0  0  0  0  0  0  0  0  0  0  0  0
   10.6658   23.2074    0.0000 H   0  0  0  0  0  0  0  0  0  0  0  0
    9.0103   28.2830    0.0000 H   0  0  0  0  0  0  0  0  0  0  0  0
    9.6999   27.8833    0.0000 H   0  0  0  0  0  0  0  0  0  0  0  0
    9.6777   29.5720    0.0000 H   0  0  0  0  0  0  0  0  0  0  0  0
    8.9881   29.9717    0.0000 H   0  0  0  0  0  0  0  0  0  0  0  0
   10.6089   21.9740    0.0000 H   0  0  0  0  0  0  0  0  0  0  0  0
    9.9763   30.2255    0.0000 H   0  0  0  0  0  0  0  0  0  0  0  0
   10.4778   31.0906    0.0000 H   0  0  0  0  0  0  0  0  0  0  0  0
    7.5118   29.1516    0.0000 H   0  0  0  0  0  0  0  0  0  0  0  0
    8.2014   28.7519    0.0000 H   0  0  0  0  0  0  0  0  0  0  0  0
   10.1262   19.8145    0.0000 H   0  0  0  0  0  0  0  0  0  0  0  0
   10.7195   20.3468    0.0000 H   0  0  0  0  0  0  0  0  0  0  0  0
    8.6623   25.4403    0.0000 H   0  0  0  0  0  0  0  0  0  0  0  0
    6.5738   23.5664    0.0000 H   0  0  0  0  0  0  0  0  0  0  0  0
   11.9890   30.4774    0.0000 H   0  0  0  0  0  0  0  0  0  0  0  0
   12.6800   30.8748    0.0000 H   0  0  0  0  0  0  0  0  0  0  0  0
   11.5874   22.1802    0.0000 H   0  0  0  0  0  0  0  0  0  0  0  0
   12.8485   20.4635    0.0000 H   0  0  0  0  0  0  0  0  0  0  0  0
   12.7080   32.5634    0.0000 H   0  0  0  0  0  0  0  0  0  0  0  0
   12.0170   32.1660    0.0000 H   0  0  0  0  0  0  0  0  0  0  0  0
   13.7659   21.5419    0.0000 H   0  0  0  0  0  0  0  0  0  0  0  0
    7.5804   26.6460    0.0000 H   0  0  0  0  0  0  0  0  0  0  0  0
    5.4919   24.7721    0.0000 H   0  0  0  0  0  0  0  0  0  0  0  0
    6.9763   30.2306    0.0000 H   0  0  0  0  0  0  0  0  0  0  0  0
   11.2222   33.6874    0.0000 H   0  0  0  0  0  0  0  0  0  0  0  0
   11.7207   32.8205    0.0000 H   0  0  0  0  0  0  0  0  0  0  0  0
   13.4905   31.3408    0.0000 H   0  0  0  0  0  0  0  0  0  0  0  0
   14.1815   31.7382    0.0000 H   0  0  0  0  0  0  0  0  0  0  0  0
   12.1371   23.0397    0.0000 H   0  0  0  0  0  0  0  0  0  0  0  0
   12.3014   22.2597    0.0000 H   0  0  0  0  0  0  0  0  0  0  0  0
    9.0193   33.4792    0.0000 H   0  0  0  0  0  0  0  0  0  0  0  0
    9.7089   33.0794    0.0000 H   0  0  0  0  0  0  0  0  0  0  0  0
   13.5164   19.7192    0.0000 H   0  0  0  0  0  0  0  0  0  0  0  0
   14.4582   21.6029    0.0000 H   0  0  0  0  0  0  0  0  0  0  0  0
   14.9370   22.3374    0.0000 H   0  0  0  0  0  0  0  0  0  0  0  0
   14.2025   22.8162    0.0000 H   0  0  0  0  0  0  0  0  0  0  0  0
    8.7947   35.0946    0.0000 H   0  0  0  0  0  0  0  0  0  0  0  0
    8.6519   21.5616    0.0000 H   0  0  0  0  0  0  0  0  0  0  0  0
    9.2305   18.8160    0.0000 H   0  0  0  0  0  0  0  0  0  0  0  0
   14.2095   33.4268    0.0000 H   0  0  0  0  0  0  0  0  0  0  0  0
   13.5185   33.0295    0.0000 H   0  0  0  0  0  0  0  0  0  0  0  0
   13.5840   23.5056    0.0000 H   0  0  0  0  0  0  0  0  0  0  0  0
   13.1872   24.2875    0.0000 H   0  0  0  0  0  0  0  0  0  0  0  0
   12.4053   23.8908    0.0000 H   0  0  0  0  0  0  0  0  0  0  0  0
   14.7487   19.6426    0.0000 H   0  0  0  0  0  0  0  0  0  0  0  0
    7.0667   21.2275    0.0000 H   0  0  0  0  0  0  0  0  0  0  0  0
    7.6454   18.4819    0.0000 H   0  0  0  0  0  0  0  0  0  0  0  0
    5.1347   26.4670    0.0000 H   0  0  0  0  0  0  0  0  0  0  0  0
    8.1048   35.1788    0.0000 H   0  0  0  0  0  0  0  0  0  0  0  0
    7.4838   34.5599    0.0000 H   0  0  0  0  0  0  0  0  0  0  0  0
    8.1027   33.9388    0.0000 H   0  0  0  0  0  0  0  0  0  0  0  0
   10.1416   35.1113    0.0000 H   0  0  0  0  0  0  0  0  0  0  0  0
    9.9162   35.9587    0.0000 H   0  0  0  0  0  0  0  0  0  0  0  0
    9.0688   35.7332    0.0000 H   0  0  0  0  0  0  0  0  0  0  0  0
   12.4128   34.0144    0.0000 H   0  0  0  0  0  0  0  0  0  0  0  0
    6.5634   19.6877    0.0000 H   0  0  0  0  0  0  0  0  0  0  0  0
   12.9143   34.8796    0.0000 H   0  0  0  0  0  0  0  0  0  0  0  0
   16.3544   19.3570    0.0000 H   0  0  0  0  0  0  0  0  0  0  0  0
   16.9477   19.8893    0.0000 H   0  0  0  0  0  0  0  0  0  0  0  0
   15.4117   33.3511    0.0000 H   0  0  0  0  0  0  0  0  0  0  0  0
   15.4098   32.2772    0.0000 H   0  0  0  0  0  0  0  0  0  0  0  0
    6.9793   31.9627    0.0000 H   0  0  0  0  0  0  0  0  0  0  0  0
    7.9102   32.4980    0.0000 H   0  0  0  0  0  0  0  0  0  0  0  0
   11.6325   36.6833    0.0000 H   0  0  0  0  0  0  0  0  0  0  0  0
   11.6311   35.8863    0.0000 H   0  0  0  0  0  0  0  0  0  0  0  0
   14.4380   18.6921    0.0000 H   0  0  0  0  0  0  0  0  0  0  0  0
    9.4068   30.5555    0.0000 H   0  0  0  0  0  0  0  0  0  0  0  0
   13.0825   36.7498    0.0000 H   0  0  0  0  0  0  0  0  0  0  0  0
   13.0839   37.5468    0.0000 H   0  0  0  0  0  0  0  0  0  0  0  0
   11.6355   38.4154    0.0000 H   0  0  0  0  0  0  0  0  0  0  0  0
   11.6341   37.6183    0.0000 H   0  0  0  0  0  0  0  0  0  0  0  0
   18.0371   20.6719    0.0000 H   0  0  0  0  0  0  0  0  0  0  0  0
   15.3700   21.5436    0.0000 H   0  0  0  0  0  0  0  0  0  0  0  0
   14.8549   17.4171    0.0000 H   0  0  0  0  0  0  0  0  0  0  0  0
   15.0193   16.6372    0.0000 H   0  0  0  0  0  0  0  0  0  0  0  0
   18.5404   22.2118    0.0000 H   0  0  0  0  0  0  0  0  0  0  0  0
   15.8733   23.0835    0.0000 H   0  0  0  0  0  0  0  0  0  0  0  0
   14.7267   36.2794    0.0000 H   0  0  0  0  0  0  0  0  0  0  0  0
   13.2312   38.8801    0.0000 H   0  0  0  0  0  0  0  0  0  0  0  0
   16.6764   16.5087    0.0000 H   0  0  0  0  0  0  0  0  0  0  0  0
   15.8202   14.5581    0.0000 H   0  0  0  0  0  0  0  0  0  0  0  0
   17.3523    6.3668    0.0000 H   0  0  0  0  0  0  0  0  0  0  0  0
   16.5459    7.3696    0.0000 H   0  0  0  0  0  0  0  0  0  0  0  0
   15.9526    6.8373    0.0000 H   0  0  0  0  0  0  0  0  0  0  0  0
   17.9125    9.1400    0.0000 H   0  0  0  0  0  0  0  0  0  0  0  0
   17.4260   14.2725    0.0000 H   0  0  0  0  0  0  0  0  0  0  0  0
   18.0192   14.8049    0.0000 H   0  0  0  0  0  0  0  0  0  0  0  0
   17.0801   12.1685    0.0000 H   0  0  0  0  0  0  0  0  0  0  0  0
   20.2732    5.2123    0.0000 H   0  0  0  0  0  0  0  0  0  0  0  0
   15.5096   13.6076    0.0000 H   0  0  0  0  0  0  0  0  0  0  0  0
   18.0202    5.6226    0.0000 H   0  0  0  0  0  0  0  0  0  0  0  0
   19.0016    5.0153    0.0000 H   0  0  0  0  0  0  0  0  0  0  0  0
   19.1659    4.2354    0.0000 H   0  0  0  0  0  0  0  0  0  0  0  0
   18.4975    9.1881    0.0000 H   0  0  0  0  0  0  0  0  0  0  0  0
   19.0908    9.7204    0.0000 H   0  0  0  0  0  0  0  0  0  0  0  0
   16.5811    8.5231    0.0000 H   0  0  0  0  0  0  0  0  0  0  0  0
   14.9685   11.5068    0.0000 H   0  0  0  0  0  0  0  0  0  0  0  0
   15.7262   11.2592    0.0000 H   0  0  0  0  0  0  0  0  0  0  0  0
   17.7479   11.4242    0.0000 H   0  0  0  0  0  0  0  0  0  0  0  0
   18.1832   23.9066    0.0000 H   0  0  0  0  0  0  0  0  0  0  0  0
   20.7633    3.6870    0.0000 H   0  0  0  0  0  0  0  0  0  0  0  0
   20.5989    4.4669    0.0000 H   0  0  0  0  0  0  0  0  0  0  0  0
   17.6955   16.4624    0.0000 H   0  0  0  0  0  0  0  0  0  0  0  0
   17.1022   15.9301    0.0000 H   0  0  0  0  0  0  0  0  0  0  0  0
   17.4594    4.9947    0.0000 H   0  0  0  0  0  0  0  0  0  0  0  0
   21.0303    6.4693    0.0000 H   0  0  0  0  0  0  0  0  0  0  0  0
   18.7670   11.3779    0.0000 H   0  0  0  0  0  0  0  0  0  0  0  0
   18.1738   10.8456    0.0000 H   0  0  0  0  0  0  0  0  0  0  0  0
   15.3534   12.9064    0.0000 H   0  0  0  0  0  0  0  0  0  0  0  0
   14.5958   13.1540    0.0000 H   0  0  0  0  0  0  0  0  0  0  0  0
   16.4484    3.6006    0.0000 H   0  0  0  0  0  0  0  0  0  0  0  0
   12.3052   41.1507    0.0000 H   0  0  0  0  0  0  0  0  0  0  0  0
   13.2342   40.6121    0.0000 H   0  0  0  0  0  0  0  0  0  0  0  0
   19.3587    3.3205    0.0000 H   0  0  0  0  0  0  0  0  0  0  0  0
   19.5231    2.5405    0.0000 H   0  0  0  0  0  0  0  0  0  0  0  0
   14.4435    6.6147    0.0000 H   0  0  0  0  0  0  0  0  0  0  0  0
   23.0907    5.4698    0.0000 H   0  0  0  0  0  0  0  0  0  0  0  0
   10.8037   40.2873    0.0000 H   0  0  0  0  0  0  0  0  0  0  0  0
   14.4435    3.3747    0.0000 H   0  0  0  0  0  0  0  0  0  0  0  0
   22.7741    6.9121    0.0000 H   0  0  0  0  0  0  0  0  0  0  0  0
   22.1809    6.3798    0.0000 H   0  0  0  0  0  0  0  0  0  0  0  0
   13.0406    5.8047    0.0000 H   0  0  0  0  0  0  0  0  0  0  0  0
   13.0406    4.1847    0.0000 H   0  0  0  0  0  0  0  0  0  0  0  0
   21.1802    2.4120    0.0000 H   0  0  0  0  0  0  0  0  0  0  0  0
   23.7937    5.8790    0.0000 H   0  0  0  0  0  0  0  0  0  0  0  0
   24.3870    6.4113    0.0000 H   0  0  0  0  0  0  0  0  0  0  0  0
   23.7585    4.7255    0.0000 H   0  0  0  0  0  0  0  0  0  0  0  0
   22.9592    4.0083    0.0000 H   0  0  0  0  0  0  0  0  0  0  0  0
   19.5946   16.8068    0.0000 H   0  0  0  0  0  0  0  0  0  0  0  0
   19.1978   17.5888    0.0000 H   0  0  0  0  0  0  0  0  0  0  0  0
   18.4159   17.1921    0.0000 H   0  0  0  0  0  0  0  0  0  0  0  0
   20.6834   12.0428    0.0000 H   0  0  0  0  0  0  0  0  0  0  0  0
   19.6627   12.3765    0.0000 H   0  0  0  0  0  0  0  0  0  0  0  0
   13.3733   13.7061    0.0000 H   0  0  0  0  0  0  0  0  0  0  0  0
   20.7381    0.0000    0.0000 H   0  0  0  0  0  0  0  0  0  0  0  0
   21.5374    0.7172    0.0000 H   0  0  0  0  0  0  0  0  0  0  0  0
   25.1902    7.0487    0.0000 H   0  0  0  0  0  0  0  0  0  0  0  0
   25.6690    7.7833    0.0000 H   0  0  0  0  0  0  0  0  0  0  0  0
   24.9345    8.2621    0.0000 H   0  0  0  0  0  0  0  0  0  0  0  0
   19.0917    0.5381    0.0000 H   0  0  0  0  0  0  0  0  0  0  0  0
    3.1350   20.5684    0.0000 H   0  0  0  0  0  0  0  0  0  0  0  0
  1139  1  0  0  0  0
  1156  1  0  0  0  0
  2155  1  0  0  0  0
  2158  1  0  0  0  0
  3159  1  0  0  0  0
  4159  1  0  0  0  0
  5159  1  0  0  0  0
  6 62  2  0  0  0  0
  7 63  2  0  0  0  0
  8 69  2  0  0  0  0
  9 71  2  0  0  0  0
 10 80  2  0  0  0  0
 11 82  2  0  0  0  0
 12 87  1  0  0  0  0
 12220  1  0  0  0  0
 13 98  2  0  0  0  0
 14 99  2  0  0  0  0
 15112  1  0  0  0  0
 15250  1  0  0  0  0
 16112  2  0  0  0  0
 17113  2  0  0  0  0
 18120  1  0  0  0  0
 18272  1  0  0  0  0
 19122  2  0  0  0  0
 20131  2  0  0  0  0
 21132  2  0  0  0  0
 22136  2  0  0  0  0
 23137  2  0  0  0  0
 24147  2  0  0  0  0
 25154  1  0  0  0  0
 25306  1  0  0  0  0
 26152  2  0  0  0  0
 27154  2  0  0  0  0
 28160  1  0  0  0  0
 28313  1  0  0  0  0
 29160  2  0  0  0  0
 30 58  1  0  0  0  0
 30 61  1  0  0  0  0
 30 62  1  0  0  0  0
 31 63  1  0  0  0  0
 65 31  1  1  0  0  0
 31169  1  0  0  0  0
 64 32  1  1  0  0  0
 32 71  1  0  0  0  0
 32173  1  0  0  0  0
 33 69  1  0  0  0  0
 73 33  1  6  0  0  0
 33179  1  0  0  0  0
 72 34  1  1  0  0  0
 34 82  1  0  0  0  0
 34189  1  0  0  0  0
 35 74  1  0  0  0  0
 35 97  1  0  0  0  0
 35196  1  0  0  0  0
 36 80  1  0  0  0  0
 88 36  1  1  0  0  0
 36198  1  0  0  0  0
 79 37  1  6  0  0  0
 37 99  1  0  0  0  0
 37205  1  0  0  0  0
 38 98  1  0  0  0  0
107 38  1  1  0  0  0
 38227  1  0  0  0  0
 39 96  1  0  0  0  0
 39232  1  0  0  0  0
 39233  1  0  0  0  0
 40 97  1  0  0  0  0
 40234  1  0  0  0  0
 40235  1  0  0  0  0
101 41  1  6  0  0  0
 41113  1  0  0  0  0
 41238  1  0  0  0  0
 42 97  2  0  0  0  0
 42239  1  0  0  0  0
 43114  1  0  0  0  0
 43125  1  0  0  0  0
 43251  1  0  0  0  0
 44117  1  0  0  0  0
 44122  1  0  0  0  0
 44252  1  0  0  0  0
121 45  1  6  0  0  0
 45132  1  0  0  0  0
 45262  1  0  0  0  0
123 46  1  1  0  0  0
 46136  1  0  0  0  0
 46263  1  0  0  0  0
127 47  1  6  0  0  0
 47131  1  0  0  0  0
 47268  1  0  0  0  0
128 48  1  1  0  0  0
 48137  1  0  0  0  0
 48271  1  0  0  0  0
129 49  1  1  0  0  0
 49147  1  0  0  0  0
 49278  1  0  0  0  0
 50141  1  0  0  0  0
 50142  1  0  0  0  0
 50283  1  0  0  0  0
 51125  1  0  0  0  0
 51284  1  0  0  0  0
 51285  1  0  0  0  0
 52125  2  0  0  0  0
 52290  1  0  0  0  0
 53145  1  0  0  0  0
 53157  1  0  0  0  0
 53296  1  0  0  0  0
148 54  1  6  0  0  0
 54299  1  0  0  0  0
 54300  1  0  0  0  0
 55152  1  0  0  0  0
 55304  1  0  0  0  0
 55305  1  0  0  0  0
 56157  1  0  0  0  0
 56307  1  0  0  0  0
 56308  1  0  0  0  0
 57157  2  0  0  0  0
 57312  1  0  0  0  0
 58 59  1  0  0  0  0
 58 63  1  6  0  0  0
 58161  1  0  0  0  0
 59 60  1  0  0  0  0
 59162  1  0  0  0  0
 59163  1  0  0  0  0
 60 61  1  0  0  0  0
 60164  1  0  0  0  0
 60165  1  0  0  0  0
 61166  1  0  0  0  0
 61167  1  0  0  0  0
 62 64  1  0  0  0  0
 64 66  1  0  0  0  0
 64168  1  0  0  0  0
 65 67  1  0  0  0  0
 65 69  1  0  0  0  0
 65170  1  0  0  0  0
 66 68  1  0  0  0  0
 66171  1  0  0  0  0
 66172  1  0  0  0  0
 67 70  1  0  0  0  0
 67174  1  0  0  0  0
 67175  1  0  0  0  0
 68 76  2  0  0  0  0
 68 77  1  0  0  0  0
 70 74  1  0  0  0  0
 70176  1  0  0  0  0
 70177  1  0  0  0  0
 71 72  1  0  0  0  0
 72 75  1  0  0  0  0
 72178  1  0  0  0  0
 73 78  1  0  0  0  0
 73 80  1  0  0  0  0
 73180  1  0  0  0  0
 74181  1  0  0  0  0
 74182  1  0  0  0  0
 75 86  1  0  0  0  0
 75183  1  0  0  0  0
 75184  1  0  0  0  0
 76 84  1  0  0  0  0
 76185  1  0  0  0  0
 77 85  2  0  0  0  0
 77186  1  0  0  0  0
 78 81  1  0  0  0  0
 78187  1  0  0  0  0
 78188  1  0  0  0  0
 79 82  1  0  0  0  0
 79 83  1  0  0  0  0
 79190  1  0  0  0  0
 81 89  1  0  0  0  0
 81191  1  0  0  0  0
 81192  1  0  0  0  0
 83 90  1  0  0  0  0
 83 92  1  6  0  0  0
 83193  1  0  0  0  0
 84 87  2  0  0  0  0
 84194  1  0  0  0  0
 85 87  1  0  0  0  0
 85195  1  0  0  0  0
 86 94  2  0  0  0  0
 86 95  1  0  0  0  0
 88 91  1  0  0  0  0
 88 98  1  0  0  0  0
 88197  1  0  0  0  0
 89 96  1  0  0  0  0
 89199  1  0  0  0  0
 89200  1  0  0  0  0
 90100  1  0  0  0  0
 90201  1  0  0  0  0
 90202  1  0  0  0  0
 91 93  1  0  0  0  0
 91203  1  0  0  0  0
 91204  1  0  0  0  0
 92206  1  0  0  0  0
 92207  1  0  0  0  0
 92208  1  0  0  0  0
 93104  1  0  0  0  0
 93105  1  0  0  0  0
 93209  1  0  0  0  0
 94102  1  0  0  0  0
 94210  1  0  0  0  0
 95103  2  0  0  0  0
 95211  1  0  0  0  0
 96212  1  0  0  0  0
 96213  1  0  0  0  0
 99101  1  0  0  0  0
100214  1  0  0  0  0
100215  1  0  0  0  0
100216  1  0  0  0  0
101108  1  0  0  0  0
101217  1  0  0  0  0
102106  2  0  0  0  0
102218  1  0  0  0  0
103106  1  0  0  0  0
103219  1  0  0  0  0
104221  1  0  0  0  0
104222  1  0  0  0  0
104223  1  0  0  0  0
105224  1  0  0  0  0
105225  1  0  0  0  0
105226  1  0  0  0  0
106228  1  0  0  0  0
107109  1  0  0  0  0
107112  1  0  0  0  0
107229  1  0  0  0  0
108110  1  0  0  0  0
108230  1  0  0  0  0
108231  1  0  0  0  0
109111  1  0  0  0  0
109236  1  0  0  0  0
109237  1  0  0  0  0
110115  2  0  0  0  0
110116  1  0  0  0  0
111114  1  0  0  0  0
111240  1  0  0  0  0
111241  1  0  0  0  0
113117  1  0  0  0  0
114242  1  0  0  0  0
114243  1  0  0  0  0
115118  1  0  0  0  0
115244  1  0  0  0  0
116119  2  0  0  0  0
116245  1  0  0  0  0
117246  1  0  0  0  0
117247  1  0  0  0  0
118120  2  0  0  0  0
118248  1  0  0  0  0
119120  1  0  0  0  0
119249  1  0  0  0  0
121122  1  0  0  0  0
121126  1  0  0  0  0
121253  1  0  0  0  0
123124  1  0  0  0  0
123131  1  0  0  0  0
123254  1  0  0  0  0
124130  1  0  0  0  0
124255  1  0  0  0  0
124256  1  0  0  0  0
126139  1  0  0  0  0
126258  1  0  0  0  0
126259  1  0  0  0  0
127134  1  0  0  0  0
127137  1  0  0  0  0
127257  1  0  0  0  0
128132  1  0  0  0  0
128135  1  0  0  0  0
128260  1  0  0  0  0
129133  1  0  0  0  0
129136  1  0  0  0  0
129261  1  0  0  0  0
130138  1  0  0  0  0
130142  2  0  0  0  0
133140  1  0  0  0  0
133264  1  0  0  0  0
133265  1  0  0  0  0
134143  1  0  0  0  0
134266  1  0  0  0  0
134267  1  0  0  0  0
135144  1  0  0  0  0
135269  1  0  0  0  0
135270  1  0  0  0  0
138141  1  0  0  0  0
138146  2  0  0  0  0
139275  1  0  0  0  0
139276  1  0  0  0  0
140145  1  0  0  0  0
140273  1  0  0  0  0
140274  1  0  0  0  0
141149  2  0  0  0  0
142277  1  0  0  0  0
143152  1  0  0  0  0
143279  1  0  0  0  0
143280  1  0  0  0  0
144154  1  0  0  0  0
144281  1  0  0  0  0
144282  1  0  0  0  0
145286  1  0  0  0  0
145287  1  0  0  0  0
146151  1  0  0  0  0
146288  1  0  0  0  0
147148  1  0  0  0  0
148150  1  0  0  0  0
148289  1  0  0  0  0
149153  1  0  0  0  0
149291  1  0  0  0  0
150155  1  0  0  0  0
150292  1  0  0  0  0
150293  1  0  0  0  0
151153  2  0  0  0  0
151294  1  0  0  0  0
153295  1  0  0  0  0
155297  1  0  0  0  0
155298  1  0  0  0  0
156301  1  0  0  0  0
156302  1  0  0  0  0
156303  1  0  0  0  0
158309  1  0  0  0  0
158310  1  0  0  0  0
158311  1  0  0  0  0
159160  1  0  0  0  0
M  END
> <PUBCHEM_COMPOUND_CID>
163335335

> <PUBCHEM_COMPOUND_CANONICALIZED>
1

> <PUBCHEM_CACTVS_COMPLEXITY>
4600

> <PUBCHEM_CACTVS_HBOND_ACCEPTOR>
34

> <PUBCHEM_CACTVS_HBOND_DONOR>
32

> <PUBCHEM_CACTVS_ROTATABLE_BOND>
73

> <PUBCHEM_CACTVS_SUBSKEYS>
AAADcfB//4BgAAAAAAAAAAAAAAAAAWLAAAAwYMGAAAAAAFgB9AAAHwQQCAAADSzF3hS/zvPJkgioAzX3fACCgCCxIjAJ2aG+bJiKZvLimbOUcAhk1hPY2Ae83+KOoAAAAAACAABAAAAAAAQAAAAAAAAAAA==

> <PUBCHEM_IUPAC_OPENEYE_NAME>
(4S)-4-[[(2S)-5-amino-2-[[(2S)-2-[[(2S)-2-[[(2S)-2-amino-4-methylsulfanyl-butanoyl]amino]-5-guanidino-pentanoyl]amino]-3-(1H-indol-3-yl)propanoyl]amino]-5-oxo-pentanoyl]amino]-5-[[(1S)-1-[[2-[[(1S)-2-[[(1S,2S)-1-[[(1S)-2-[[(1S)-2-[(2S)-2-[[(1S)-1-[[(1S)-5-amino-1-[[(1S)-1-[[(1S)-1-carboxy-4-guanidino-butyl]carbamoyl]-3-methyl-butyl]carbamoyl]pentyl]carbamoyl]-4-guanidino-butyl]carbamoyl]pyrrolidin-1-yl]-1-[(4-hydroxyphenyl)methyl]-2-oxo-ethyl]amino]-1-benzyl-2-oxo-ethyl]carbamoyl]-2-methyl-butyl]amino]-1-[(4-hydroxyphenyl)methyl]-2-oxo-ethyl]amino]-2-oxo-ethyl]carbamoyl]-3-methylsulfanyl-propyl]amino]-5-oxo-pentanoic acid;2,2,2-trifluoroacetic acid

> <PUBCHEM_IUPAC_CAS_NAME>
(4S)-4-[[(2S)-5-amino-2-[[(2S)-2-[[(2S)-2-[[(2S)-2-amino-4-(methylthio)-1-oxobutyl]amino]-5-carbamimidamido-1-oxopentyl]amino]-3-(1H-indol-3-yl)-1-oxopropyl]amino]-1,5-dioxopentyl]amino]-5-[[(2S)-1-[[2-[[(2S)-1-[[(2S,3S)-1-[[(2S)-1-[[(2S)-1-[(2S)-2-[[[(2S)-1-[[(2S)-6-amino-1-[[(2S)-1-[[(1S)-4-carbamimidamido-1-carboxybutyl]amino]-4-methyl-1-oxopentan-2-yl]amino]-1-oxohexan-2-yl]amino]-5-carbamimidamido-1-oxopentan-2-yl]amino]-oxomethyl]-1-pyrrolidinyl]-3-(4-hydroxyphenyl)-1-oxopropan-2-yl]amino]-1-oxo-3-phenylpropan-2-yl]amino]-3-methyl-1-oxopentan-2-yl]amino]-3-(4-hydroxyphenyl)-1-oxopropan-2-yl]amino]-2-oxoethyl]amino]-4-(methylthio)-1-oxobutan-2-yl]amino]-5-oxopentanoic acid;2,2,2-trifluoroacetic acid

> <PUBCHEM_IUPAC_NAME_MARKUP>
(4<I>S</I>)-4-[[(2<I>S</I>)-5-amino-2-[[(2<I>S</I>)-2-[[(2<I>S</I>)-2-[[(2<I>S</I>)-2-amino-4-methylsulfanylbutanoyl]amino]-5-carbamimidamidopentanoyl]amino]-3-(1<I>H</I>-indol-3-yl)propanoyl]amino]-5-oxopentanoyl]amino]-5-[[(2<I>S</I>)-1-[[2-[[(2<I>S</I>)-1-[[(2<I>S</I>,3<I>S</I>)-1-[[(2<I>S</I>)-1-[[(2<I>S</I>)-1-[(2<I>S</I>)-2-[[(2<I>S</I>)-1-[[(2<I>S</I>)-6-amino-1-[[(2<I>S</I>)-1-[[(1<I>S</I>)-4-carbamimidamido-1-carboxybutyl]amino]-4-methyl-1-oxopentan-2-yl]amino]-1-oxohexan-2-yl]amino]-5-carbamimidamido-1-oxopentan-2-yl]carbamoyl]pyrrolidin-1-yl]-3-(4-hydroxyphenyl)-1-oxopropan-2-yl]amino]-1-oxo-3-phenylpropan-2-yl]amino]-3-methyl-1-oxopentan-2-yl]amino]-3-(4-hydroxyphenyl)-1-oxopropan-2-yl]amino]-2-oxoethyl]amino]-4-methylsulfanyl-1-oxobutan-2-yl]amino]-5-oxopentanoic acid;2,2,2-trifluoroacetic acid

> <PUBCHEM_IUPAC_NAME>
(4S)-4-[[(2S)-5-amino-2-[[(2S)-2-[[(2S)-2-[[(2S)-2-amino-4-methylsulfanylbutanoyl]amino]-5-carbamimidamidopentanoyl]amino]-3-(1H-indol-3-yl)propanoyl]amino]-5-oxopentanoyl]amino]-5-[[(2S)-1-[[2-[[(2S)-1-[[(2S,3S)-1-[[(2S)-1-[[(2S)-1-[(2S)-2-[[(2S)-1-[[(2S)-6-amino-1-[[(2S)-1-[[(1S)-4-carbamimidamido-1-carboxybutyl]amino]-4-methyl-1-oxopentan-2-yl]amino]-1-oxohexan-2-yl]amino]-5-carbamimidamido-1-oxopentan-2-yl]carbamoyl]pyrrolidin-1-yl]-3-(4-hydroxyphenyl)-1-oxopropan-2-yl]amino]-1-oxo-3-phenylpropan-2-yl]amino]-3-methyl-1-oxopentan-2-yl]amino]-3-(4-hydroxyphenyl)-1-oxopropan-2-yl]amino]-2-oxoethyl]amino]-4-methylsulfanyl-1-oxobutan-2-yl]amino]-5-oxopentanoic acid;2,2,2-trifluoroacetic acid

> <PUBCHEM_IUPAC_SYSTEMATIC_NAME>
(4S)-4-[[(2S)-5-azanyl-2-[[(2S)-2-[[(2S)-2-[[(2S)-2-azanyl-4-methylsulfanyl-butanoyl]amino]-5-carbamimidamido-pentanoyl]amino]-3-(1H-indol-3-yl)propanoyl]amino]-5-oxidanylidene-pentanoyl]amino]-5-[[(2S)-1-[[2-[[(2S)-1-[[(2S,3S)-1-[[(2S)-1-[[(2S)-1-[(2S)-2-[[(2S)-1-[[(2S)-6-azanyl-1-[[(2S)-1-[[(2S)-5-carbamimidamido-1-oxidanyl-1-oxidanylidene-pentan-2-yl]amino]-4-methyl-1-oxidanylidene-pentan-2-yl]amino]-1-oxidanylidene-hexan-2-yl]amino]-5-carbamimidamido-1-oxidanylidene-pentan-2-yl]carbamoyl]pyrrolidin-1-yl]-3-(4-hydroxyphenyl)-1-oxidanylidene-propan-2-yl]amino]-1-oxidanylidene-3-phenyl-propan-2-yl]amino]-3-methyl-1-oxidanylidene-pentan-2-yl]amino]-3-(4-hydroxyphenyl)-1-oxidanylidene-propan-2-yl]amino]-2-oxidanylidene-ethyl]amino]-4-methylsulfanyl-1-oxidanylidene-butan-2-yl]amino]-5-oxidanylidene-pentanoic acid;2,2,2-tris(fluoranyl)ethanoic acid

> <PUBCHEM_IUPAC_TRADITIONAL_NAME>
(4S)-4-[[(2S)-5-amino-2-[[(2S)-2-[[(2S)-2-[[(2S)-2-amino-4-(methylthio)butanoyl]amino]-5-guanidino-pentanoyl]amino]-3-(1H-indol-3-yl)propanoyl]amino]-5-keto-pentanoyl]amino]-5-[[(1S)-1-[[2-[[(1S)-2-[[(1S,2S)-1-[[(1S)-2-[[(1S)-2-[(2S)-2-[[(1S)-1-[[(1S)-5-amino-1-[[(1S)-1-[[(1S)-1-carboxy-4-guanidino-butyl]carbamoyl]-3-methyl-butyl]carbamoyl]pentyl]carbamoyl]-4-guanidino-butyl]carbamoyl]pyrrolidino]-1-(4-hydroxybenzyl)-2-keto-ethyl]amino]-1-benzyl-2-keto-ethyl]carbamoyl]-2-methyl-butyl]amino]-1-(4-hydroxybenzyl)-2-keto-ethyl]amino]-2-keto-ethyl]carbamoyl]-3-(methylthio)propyl]amino]-5-keto-valeric acid;2,2,2-trifluoroacetic acid

> <PUBCHEM_IUPAC_INCHI>
InChI=1S/C101H152N28O22S2.C2HF3O2/c1-7-57(4)83(96(148)126-76(50-58-19-9-8-10-20-58)92(144)127-78(52-60-30-34-63(131)35-31-60)97(149)129-46-18-27-79(129)95(147)122-69(25-16-44-112-100(107)108)86(138)118-67(23-13-14-42-102)87(139)124-74(49-56(2)3)91(143)123-73(98(150)151)26-17-45-113-101(109)110)128-94(146)75(51-59-28-32-62(130)33-29-59)116-81(133)55-115-85(137)72(41-48-153-6)121-90(142)71(37-39-82(134)135)119-89(141)70(36-38-80(104)132)120-93(145)77(53-61-54-114-66-22-12-11-21-64(61)66)125-88(140)68(24-15-43-111-99(105)106)117-84(136)65(103)40-47-152-5;3-2(4,5)1(6)7/h8-12,19-22,28-35,54,56-57,65,67-79,83,114,130-131H,7,13-18,23-27,36-53,55,102-103H2,1-6H3,(H2,104,132)(H,115,137)(H,116,133)(H,117,136)(H,118,138)(H,119,141)(H,120,145)(H,121,142)(H,122,147)(H,123,143)(H,124,139)(H,125,140)(H,126,148)(H,127,144)(H,128,146)(H,134,135)(H,150,151)(H4,105,106,111)(H4,107,108,112)(H4,109,110,113);(H,6,7)/t57-,65-,67-,68-,69-,70-,71-,72-,73-,74-,75-,76-,77-,78-,79-,83-;/m0./s1

> <PUBCHEM_IUPAC_INCHIKEY>
JLKDYZLVBJDJTO-DNWXONKHSA-N

> <PUBCHEM_EXACT_MASS>
2288.1039595

> <PUBCHEM_MOLECULAR_FORMULA>
C103H153F3N28O24S2

> <PUBCHEM_MOLECULAR_WEIGHT>
2288.6

> <PUBCHEM_SMILES>
CC[C@H](C)[C@@H](C(=O)N[C@@H](CC1=CC=CC=C1)C(=O)N[C@@H](CC2=CC=C(C=C2)O)C(=O)N3CCC[C@H]3C(=O)N[C@@H](CCCNC(=N)N)C(=O)N[C@@H](CCCCN)C(=O)N[C@@H](CC(C)C)C(=O)N[C@@H](CCCNC(=N)N)C(=O)O)NC(=O)[C@H](CC4=CC=C(C=C4)O)NC(=O)CNC(=O)[C@H](CCSC)NC(=O)[C@H](CCC(=O)O)NC(=O)[C@H](CCC(=O)N)NC(=O)[C@H](CC5=CNC6=CC=CC=C65)NC(=O)[C@H](CCCNC(=N)N)NC(=O)[C@H](CCSC)N.C(=O)(C(F)(F)F)O

> <PUBCHEM_CONNECTIVITY_SMILES>
CCC(C)C(C(=O)NC(CC1=CC=CC=C1)C(=O)NC(CC2=CC=C(C=C2)O)C(=O)N3CCCC3C(=O)NC(CCCNC(=N)N)C(=O)NC(CCCCN)C(=O)NC(CC(C)C)C(=O)NC(CCCNC(=N)N)C(=O)O)NC(=O)C(CC4=CC=C(C=C4)O)NC(=O)CNC(=O)C(CCSC)NC(=O)C(CCC(=O)O)NC(=O)C(CCC(=O)N)NC(=O)C(CC5=CNC6=CC=CC=C65)NC(=O)C(CCCNC(=N)N)NC(=O)C(CCSC)N.C(=O)(C(F)(F)F)O

> <PUBCHEM_CACTVS_TPSA>
927

> <PUBCHEM_MONOISOTOPIC_WEIGHT>
2287.1006047

> <PUBCHEM_TOTAL_CHARGE>
0

> <PUBCHEM_HEAVY_ATOM_COUNT>
160

> <PUBCHEM_ATOM_DEF_STEREO_COUNT>
16

> <PUBCHEM_ATOM_UDEF_STEREO_COUNT>
0

> <PUBCHEM_BOND_DEF_STEREO_COUNT>
0

> <PUBCHEM_BOND_UDEF_STEREO_COUNT>
0

> <PUBCHEM_ISOTOPIC_ATOM_COUNT>
0

> <PUBCHEM_COMPONENT_COUNT>
2

> <PUBCHEM_CACTVS_TAUTO_COUNT>
-1

> <PUBCHEM_COORDINATE_TYPE>
1
5
255

> <PUBCHEM_BONDANNOTATIONS>
102  106  8
103  106  8
110  115  8
110  116  8
115  118  8
116  119  8
118  120  8
119  120  8
130  138  8
130  142  8
138  141  8
138  146  8
141  149  8
146  151  8
149  153  8
151  153  8
65  31  5
64  32  5
73  33  6
72  34  5
88  36  5
79  37  6
107  38  5
101  41  6
121  45  6
123  46  5
127  47  6
128  48  5
129  49  5
50  141  8
50  142  8
148  54  6
58  63  6
68  76  8
68  77  8
76  84  8
77  85  8
83  92  6
84  87  8
85  87  8
86  94  8
86  95  8
94  102  8
95  103  8

$$$$
164946842
  -OEChem-11132518582D

329331  0     1  0  0  0  0  0999 V2000
   25.1850   10.0430    0.0000 S   0  0  0  0  0  0  0  0  0  0  0  0
   27.7993    1.9088    0.0000 S   0  0  0  0  0  0  0  0  0  0  0  0
   14.3076   15.3985    0.0000 O   0  0  0  0  0  0  0  0  0  0  0  0
   13.0632   15.9525    0.0000 O   0  0  0  0  0  0  0  0  0  0  0  0
   10.4651   18.4525    0.0000 O   0  0  0  0  0  0  0  0  0  0  0  0
   17.9039   15.1406    0.0000 O   0  0  0  0  0  0  0  0  0  0  0  0
    7.7331   15.9525    0.0000 O   0  0  0  0  0  0  0  0  0  0  0  0
   18.8549   14.8316    0.0000 O   0  0  0  0  0  0  0  0  0  0  0  0
   13.2371   12.1040    0.0000 O   0  0  0  0  0  0  0  0  0  0  0  0
    5.0010   18.4525    0.0000 O   0  0  0  0  0  0  0  0  0  0  0  0
   22.4512   14.5737    0.0000 O   0  0  0  0  0  0  0  0  0  0  0  0
    1.4030   17.4525    0.0000 O   0  0  0  0  0  0  0  0  0  0  0  0
    2.2690   15.9525    0.0000 O   0  0  0  0  0  0  0  0  0  0  0  0
   23.4023   14.2647    0.0000 O   0  0  0  0  0  0  0  0  0  0  0  0
   25.7511   19.8756    0.0000 O   0  0  0  0  0  0  0  0  0  0  0  0
   26.9986   14.0067    0.0000 O   0  0  0  0  0  0  0  0  0  0  0  0
   26.8792   10.4032    0.0000 O   0  0  0  0  0  0  0  0  0  0  0  0
   30.3561    6.5417    0.0000 O   0  0  0  0  0  0  0  0  0  0  0  0
   30.4755   10.1452    0.0000 O   0  0  0  0  0  0  0  0  0  0  0  0
   30.5640    5.5635    0.0000 O   0  0  0  0  0  0  0  0  0  0  0  0
   32.1388    2.3201    0.0000 O   0  0  0  0  0  0  0  0  0  0  0  0
   31.9618   11.4835    0.0000 O   0  0  0  0  0  0  0  0  0  0  0  0
   27.7108    6.4906    0.0000 O   0  0  0  0  0  0  0  0  0  0  0  0
   30.8028   12.7707    0.0000 O   0  0  0  0  0  0  0  0  0  0  0  0
   19.3378   34.1583    0.0000 O   0  0  0  0  0  0  0  0  0  0  0  0
   19.3378   30.1174    0.0000 O   0  0  0  0  0  0  0  0  0  0  0  0
   19.3378   26.0765    0.0000 O   0  0  0  0  0  0  0  0  0  0  0  0
   18.4718   32.6583    0.0000 O   0  0  0  0  0  0  0  0  0  0  0  0
   18.4718   28.6174    0.0000 O   0  0  0  0  0  0  0  0  0  0  0  0
   18.4718   24.5765    0.0000 O   0  0  0  0  0  0  0  0  0  0  0  0
   14.8428   17.0458    0.0000 N   0  0  0  0  0  0  0  0  0  0  0  0
   12.1972   17.4525    0.0000 N   0  0  0  0  0  0  0  0  0  0  0  0
   16.7449   16.4278    0.0000 N   0  0  0  0  0  0  0  0  0  0  0  0
    9.4651   16.9525    0.0000 N   0  0  0  0  0  0  0  0  0  0  0  0
   19.3902   16.4789    0.0000 N   0  0  0  0  0  0  0  0  0  0  0  0
   11.3312   13.9525    0.0000 N   0  0  0  0  0  0  0  0  0  0  0  0
    6.7331   17.4525    0.0000 N   0  0  0  0  0  0  0  0  0  0  0  0
   21.2923   15.8608    0.0000 N   0  0  0  0  0  0  0  0  0  0  0  0
    4.0010   16.9525    0.0000 N   0  0  0  0  0  0  0  0  0  0  0  0
    6.8671   21.4525    0.0000 N   0  0  0  0  0  0  0  0  0  0  0  0
   12.1972   12.4525    0.0000 N   0  0  0  0  0  0  0  0  0  0  0  0
   23.9375   15.9119    0.0000 N   0  0  0  0  0  0  0  0  0  0  0  0
   10.4651   12.4525    0.0000 N   0  0  0  0  0  0  0  0  0  0  0  0
    1.4030   20.4525    0.0000 N   0  0  0  0  0  0  0  0  0  0  0  0
   25.3044   13.6466    0.0000 N   0  0  0  0  0  0  0  0  0  0  0  0
   27.4144   12.0504    0.0000 N   0  0  0  0  0  0  0  0  0  0  0  0
   32.2582    5.9236    0.0000 N   0  0  0  0  0  0  0  0  0  0  0  0
   30.8913    8.1889    0.0000 N   0  0  0  0  0  0  0  0  0  0  0  0
   28.7813    9.7851    0.0000 N   0  0  0  0  0  0  0  0  0  0  0  0
    0.5369   21.9525    0.0000 N   0  0  0  0  0  0  0  0  0  0  0  0
   30.9798    3.6072    0.0000 N   0  0  0  0  0  0  0  0  0  0  0  0
    2.2690   21.9525    0.0000 N   0  0  0  0  0  0  0  0  0  0  0  0
   35.0450    6.3136    0.0000 N   0  0  0  0  0  0  0  0  0  0  0  0
   34.0409    1.7020    0.0000 N   0  0  0  0  0  0  0  0  0  0  0  0
   30.6525    0.9818    0.0000 N   0  0  0  0  0  0  0  0  0  0  0  0
   28.8698    5.2034    0.0000 N   0  0  0  0  0  0  0  0  0  0  0  0
   35.1999    0.4149    0.0000 N   0  0  0  0  0  0  0  0  0  0  0  0
   35.7351    2.0621    0.0000 N   0  0  0  0  0  0  0  0  0  0  0  0
   13.9292   17.4525    0.0000 C   0  0  1  0  0  0  0  0  0  0  0  0
   14.0338   18.4471    0.0000 C   0  0  0  0  0  0  0  0  0  0  0  0
   15.0119   18.6550    0.0000 C   0  0  0  0  0  0  0  0  0  0  0  0
   15.5119   17.7890    0.0000 C   0  0  0  0  0  0  0  0  0  0  0  0
   15.0507   16.0677    0.0000 C   0  0  0  0  0  0  0  0  0  0  0  0
   13.0632   16.9525    0.0000 C   0  0  0  0  0  0  0  0  0  0  0  0
   16.0018   15.7586    0.0000 C   0  0  2  0  0  0  0  0  0  0  0  0
   11.3312   16.9525    0.0000 C   0  0  1  0  0  0  0  0  0  0  0  0
   16.2097   14.7805    0.0000 C   0  0  0  0  0  0  0  0  0  0  0  0
   11.3312   15.9525    0.0000 C   0  0  0  0  0  0  0  0  0  0  0  0
   15.4665   14.1114    0.0000 C   0  0  0  0  0  0  0  0  0  0  0  0
   10.4651   17.4525    0.0000 C   0  0  0  0  0  0  0  0  0  0  0  0
   10.4651   15.4525    0.0000 C   0  0  0  0  0  0  0  0  0  0  0  0
   17.6960   16.1188    0.0000 C   0  0  0  0  0  0  0  0  0  0  0  0
   18.4391   16.7879    0.0000 C   0  0  2  0  0  0  0  0  0  0  0  0
    8.5991   17.4525    0.0000 C   0  0  1  0  0  0  0  0  0  0  0  0
   10.4651   14.4525    0.0000 C   0  0  0  0  0  0  0  0  0  0  0  0
   18.2312   17.7660    0.0000 C   0  0  0  0  0  0  0  0  0  0  0  0
   14.5155   14.4204    0.0000 C   0  0  0  0  0  0  0  0  0  0  0  0
   15.6744   13.1332    0.0000 C   0  0  0  0  0  0  0  0  0  0  0  0
    8.5991   18.4525    0.0000 C   0  0  0  0  0  0  0  0  0  0  0  0
   20.5491   15.1917    0.0000 C   0  0  2  0  0  0  0  0  0  0  0  0
    7.7331   16.9525    0.0000 C   0  0  0  0  0  0  0  0  0  0  0  0
    7.7331   18.9525    0.0000 C   0  0  0  0  0  0  0  0  0  0  0  0
   19.5981   15.5007    0.0000 C   0  0  0  0  0  0  0  0  0  0  0  0
   20.7570   14.2136    0.0000 C   0  0  2  0  0  0  0  0  0  0  0  0
   13.7723   13.7513    0.0000 C   0  0  0  0  0  0  0  0  0  0  0  0
   14.9313   12.4641    0.0000 C   0  0  0  0  0  0  0  0  0  0  0  0
   18.9743   18.4352    0.0000 C   0  0  0  0  0  0  0  0  0  0  0  0
   13.9802   12.7731    0.0000 C   0  0  0  0  0  0  0  0  0  0  0  0
    5.8671   16.9525    0.0000 C   0  0  1  0  0  0  0  0  0  0  0  0
    7.7331   19.9525    0.0000 C   0  0  0  0  0  0  0  0  0  0  0  0
   21.7081   13.9045    0.0000 C   0  0  0  0  0  0  0  0  0  0  0  0
    5.8671   15.9525    0.0000 C   0  0  0  0  0  0  0  0  0  0  0  0
   20.0139   13.5444    0.0000 C   0  0  0  0  0  0  0  0  0  0  0  0
    5.0010   15.4525    0.0000 C   0  0  0  0  0  0  0  0  0  0  0  0
   19.9254   18.1261    0.0000 C   0  0  0  0  0  0  0  0  0  0  0  0
   18.7664   19.4133    0.0000 C   0  0  0  0  0  0  0  0  0  0  0  0
    6.8671   20.4525    0.0000 C   0  0  0  0  0  0  0  0  0  0  0  0
   11.3312   12.9525    0.0000 C   0  0  0  0  0  0  0  0  0  0  0  0
    5.0010   17.4525    0.0000 C   0  0  0  0  0  0  0  0  0  0  0  0
   22.2433   15.5518    0.0000 C   0  0  0  0  0  0  0  0  0  0  0  0
   21.9160   12.9264    0.0000 C   0  0  0  0  0  0  0  0  0  0  0  0
   22.9865   16.2209    0.0000 C   0  0  2  0  0  0  0  0  0  0  0  0
   20.6685   18.7953    0.0000 C   0  0  0  0  0  0  0  0  0  0  0  0
   19.5096   20.0824    0.0000 C   0  0  0  0  0  0  0  0  0  0  0  0
    5.0010   14.4525    0.0000 C   0  0  0  0  0  0  0  0  0  0  0  0
    4.1350   15.9525    0.0000 C   0  0  0  0  0  0  0  0  0  0  0  0
   20.4606   19.7734    0.0000 C   0  0  0  0  0  0  0  0  0  0  0  0
    3.1350   17.4525    0.0000 C   0  0  1  0  0  0  0  0  0  0  0  0
   22.7786   17.1991    0.0000 C   0  0  0  0  0  0  0  0  0  0  0  0
    3.1350   18.4525    0.0000 C   0  0  0  0  0  0  0  0  0  0  0  0
   23.5217   17.8682    0.0000 C   0  0  0  0  0  0  0  0  0  0  0  0
    2.2690   18.9525    0.0000 C   0  0  0  0  0  0  0  0  0  0  0  0
    2.2690   16.9525    0.0000 C   0  0  0  0  0  0  0  0  0  0  0  0
   24.1454   14.9338    0.0000 C   0  0  0  0  0  0  0  0  0  0  0  0
    2.2690   19.9525    0.0000 C   0  0  0  0  0  0  0  0  0  0  0  0
   23.3138   18.8464    0.0000 C   0  0  0  0  0  0  0  0  0  0  0  0
   24.4728   17.5592    0.0000 C   0  0  0  0  0  0  0  0  0  0  0  0
   25.0965   14.6248    0.0000 C   0  0  0  0  0  0  0  0  0  0  0  0
   24.0569   19.5155    0.0000 C   0  0  0  0  0  0  0  0  0  0  0  0
   25.2159   18.2283    0.0000 C   0  0  0  0  0  0  0  0  0  0  0  0
   25.0080   19.2065    0.0000 C   0  0  0  0  0  0  0  0  0  0  0  0
   26.4634   12.3595    0.0000 C   0  0  2  0  0  0  0  0  0  0  0  0
   26.2555   13.3376    0.0000 C   0  0  0  0  0  0  0  0  0  0  0  0
    1.4030   21.4525    0.0000 C   0  0  0  0  0  0  0  0  0  0  0  0
   25.7202   11.6903    0.0000 C   0  0  0  0  0  0  0  0  0  0  0  0
   32.0503    6.9018    0.0000 C   0  0  1  0  0  0  0  0  0  0  0  0
   28.5734   10.7633    0.0000 C   0  0  2  0  0  0  0  0  0  0  0  0
   32.7934    7.5709    0.0000 C   0  0  0  0  0  0  0  0  0  0  0  0
   29.9403    8.4980    0.0000 C   0  0  1  0  0  0  0  0  0  0  0  0
   31.7230    4.2764    0.0000 C   0  0  1  0  0  0  0  0  0  0  0  0
   27.6223   11.0723    0.0000 C   0  0  0  0  0  0  0  0  0  0  0  0
   33.7445    7.2619    0.0000 C   0  0  0  0  0  0  0  0  0  0  0  0
   31.0992    7.2108    0.0000 C   0  0  0  0  0  0  0  0  0  0  0  0
   29.3165   11.4324    0.0000 C   0  0  0  0  0  0  0  0  0  0  0  0
   29.1971    7.8288    0.0000 C   0  0  0  0  0  0  0  0  0  0  0  0
   32.6740    3.9673    0.0000 C   0  0  0  0  0  0  0  0  0  0  0  0
   25.9281   10.7122    0.0000 C   0  0  0  0  0  0  0  0  0  0  0  0
   29.7324    9.4761    0.0000 C   0  0  0  0  0  0  0  0  0  0  0  0
   31.5151    5.2545    0.0000 C   0  0  0  0  0  0  0  0  0  0  0  0
   34.5482    7.8469    0.0000 C   0  0  0  0  0  0  0  0  0  0  0  0
   32.8820    2.9892    0.0000 C   0  0  0  0  0  0  0  0  0  0  0  0
   35.3562    7.2577    0.0000 C   0  0  0  0  0  0  0  0  0  0  0  0
   34.0509    6.3162    0.0000 C   0  0  0  0  0  0  0  0  0  0  0  0
   29.4050    6.8507    0.0000 C   0  0  0  0  0  0  0  0  0  0  0  0
   30.2676   11.1234    0.0000 C   0  0  0  0  0  0  0  0  0  0  0  0
   33.8330    2.6802    0.0000 C   0  0  0  0  0  0  0  0  0  0  0  0
   34.6545    8.8412    0.0000 C   0  0  0  0  0  0  0  0  0  0  0  0
   31.1878    2.6291    0.0000 C   0  0  0  0  0  0  0  0  0  0  0  0
   30.4446    1.9600    0.0000 C   0  0  2  0  0  0  0  0  0  0  0  0
   36.2705    7.6629    0.0000 C   0  0  0  0  0  0  0  0  0  0  0  0
   29.4935    2.2690    0.0000 C   0  0  0  0  0  0  0  0  0  0  0  0
   35.5687    9.2464    0.0000 C   0  0  0  0  0  0  0  0  0  0  0  0
   28.6619    6.1816    0.0000 C   0  0  0  0  0  0  0  0  0  0  0  0
   36.3767    8.6572    0.0000 C   0  0  0  0  0  0  0  0  0  0  0  0
   31.0107   11.7925    0.0000 C   0  0  0  0  0  0  0  0  0  0  0  0
   25.3929    9.0649    0.0000 C   0  0  0  0  0  0  0  0  0  0  0  0
   28.7504    1.5998    0.0000 C   0  0  0  0  0  0  0  0  0  0  0  0
   34.9920    1.3930    0.0000 C   0  0  0  0  0  0  0  0  0  0  0  0
   27.0562    1.2397    0.0000 C   0  0  0  0  0  0  0  0  0  0  0  0
   17.6058   34.1583    0.0000 C   0  0  0  0  0  0  0  0  0  0  0  0
   17.6058   30.1174    0.0000 C   0  0  0  0  0  0  0  0  0  0  0  0
   17.6058   26.0765    0.0000 C   0  0  0  0  0  0  0  0  0  0  0  0
   18.4718   33.6583    0.0000 C   0  0  0  0  0  0  0  0  0  0  0  0
   18.4718   29.6174    0.0000 C   0  0  0  0  0  0  0  0  0  0  0  0
   18.4718   25.5765    0.0000 C   0  0  0  0  0  0  0  0  0  0  0  0
   13.9617   16.8334    0.0000 H   0  0  0  0  0  0  0  0  0  0  0  0
   13.9690   19.0637    0.0000 H   0  0  0  0  0  0  0  0  0  0  0  0
   13.4138   18.4471    0.0000 H   0  0  0  0  0  0  0  0  0  0  0  0
   15.5783   18.9072    0.0000 H   0  0  0  0  0  0  0  0  0  0  0  0
   14.8203   19.2446    0.0000 H   0  0  0  0  0  0  0  0  0  0  0  0
   15.9268   17.3282    0.0000 H   0  0  0  0  0  0  0  0  0  0  0  0
   16.0135   18.1534    0.0000 H   0  0  0  0  0  0  0  0  0  0  0  0
   15.8728   16.3651    0.0000 H   0  0  0  0  0  0  0  0  0  0  0  0
   12.1972   18.0725    0.0000 H   0  0  0  0  0  0  0  0  0  0  0  0
   11.8681   16.6425    0.0000 H   0  0  0  0  0  0  0  0  0  0  0  0
   16.5382   14.2547    0.0000 H   0  0  0  0  0  0  0  0  0  0  0  0
   16.7845   15.0128    0.0000 H   0  0  0  0  0  0  0  0  0  0  0  0
   16.6160   17.0342    0.0000 H   0  0  0  0  0  0  0  0  0  0  0  0
   11.5432   15.3699    0.0000 H   0  0  0  0  0  0  0  0  0  0  0  0
   11.9417   16.0602    0.0000 H   0  0  0  0  0  0  0  0  0  0  0  0
   10.2531   16.0352    0.0000 H   0  0  0  0  0  0  0  0  0  0  0  0
    9.8546   15.3449    0.0000 H   0  0  0  0  0  0  0  0  0  0  0  0
   18.8999   17.2027    0.0000 H   0  0  0  0  0  0  0  0  0  0  0  0
   10.0021   16.6425    0.0000 H   0  0  0  0  0  0  0  0  0  0  0  0
    8.5991   16.8325    0.0000 H   0  0  0  0  0  0  0  0  0  0  0  0
    9.8546   14.5602    0.0000 H   0  0  0  0  0  0  0  0  0  0  0  0
   10.2531   13.8699    0.0000 H   0  0  0  0  0  0  0  0  0  0  0  0
   17.9026   18.2918    0.0000 H   0  0  0  0  0  0  0  0  0  0  0  0
   17.6563   17.5338    0.0000 H   0  0  0  0  0  0  0  0  0  0  0  0
   14.3866   15.0268    0.0000 H   0  0  0  0  0  0  0  0  0  0  0  0
   16.2641   12.9416    0.0000 H   0  0  0  0  0  0  0  0  0  0  0  0
    9.2097   18.3449    0.0000 H   0  0  0  0  0  0  0  0  0  0  0  0
    8.8112   19.0352    0.0000 H   0  0  0  0  0  0  0  0  0  0  0  0
   19.8509   16.8937    0.0000 H   0  0  0  0  0  0  0  0  0  0  0  0
   20.4202   15.7982    0.0000 H   0  0  0  0  0  0  0  0  0  0  0  0
    7.1225   19.0602    0.0000 H   0  0  0  0  0  0  0  0  0  0  0  0
    7.5210   18.3699    0.0000 H   0  0  0  0  0  0  0  0  0  0  0  0
   20.8859   13.6071    0.0000 H   0  0  0  0  0  0  0  0  0  0  0  0
   13.1827   13.9428    0.0000 H   0  0  0  0  0  0  0  0  0  0  0  0
   15.0602   11.8576    0.0000 H   0  0  0  0  0  0  0  0  0  0  0  0
   11.8681   14.2625    0.0000 H   0  0  0  0  0  0  0  0  0  0  0  0
    6.4040   16.6425    0.0000 H   0  0  0  0  0  0  0  0  0  0  0  0
    7.2700   17.7625    0.0000 H   0  0  0  0  0  0  0  0  0  0  0  0
    8.3437   19.8449    0.0000 H   0  0  0  0  0  0  0  0  0  0  0  0
    7.9451   20.5352    0.0000 H   0  0  0  0  0  0  0  0  0  0  0  0
   22.3277   13.9262    0.0000 H   0  0  0  0  0  0  0  0  0  0  0  0
   21.7944   14.5185    0.0000 H   0  0  0  0  0  0  0  0  0  0  0  0
    6.0791   15.3699    0.0000 H   0  0  0  0  0  0  0  0  0  0  0  0
    6.4776   16.0602    0.0000 H   0  0  0  0  0  0  0  0  0  0  0  0
   21.1634   16.4673    0.0000 H   0  0  0  0  0  0  0  0  0  0  0  0
   19.5990   14.0052    0.0000 H   0  0  0  0  0  0  0  0  0  0  0  0
   19.5531   13.1296    0.0000 H   0  0  0  0  0  0  0  0  0  0  0  0
   20.4288   13.0837    0.0000 H   0  0  0  0  0  0  0  0  0  0  0  0
    5.0010   16.0725    0.0000 H   0  0  0  0  0  0  0  0  0  0  0  0
   20.0543   17.5197    0.0000 H   0  0  0  0  0  0  0  0  0  0  0  0
   18.1768   19.6049    0.0000 H   0  0  0  0  0  0  0  0  0  0  0  0
    6.2565   20.5602    0.0000 H   0  0  0  0  0  0  0  0  0  0  0  0
    6.6550   19.8699    0.0000 H   0  0  0  0  0  0  0  0  0  0  0  0
   21.3096   12.7975    0.0000 H   0  0  0  0  0  0  0  0  0  0  0  0
   22.0449   12.3199    0.0000 H   0  0  0  0  0  0  0  0  0  0  0  0
   22.5225   13.0553    0.0000 H   0  0  0  0  0  0  0  0  0  0  0  0
   23.4472   16.6358    0.0000 H   0  0  0  0  0  0  0  0  0  0  0  0
   21.2582   18.6037    0.0000 H   0  0  0  0  0  0  0  0  0  0  0  0
   19.3807   20.6889    0.0000 H   0  0  0  0  0  0  0  0  0  0  0  0
   13.3660   11.4975    0.0000 H   0  0  0  0  0  0  0  0  0  0  0  0
    4.3810   14.4525    0.0000 H   0  0  0  0  0  0  0  0  0  0  0  0
    5.0010   13.8325    0.0000 H   0  0  0  0  0  0  0  0  0  0  0  0
    5.6210   14.4525    0.0000 H   0  0  0  0  0  0  0  0  0  0  0  0
    4.4450   16.4895    0.0000 H   0  0  0  0  0  0  0  0  0  0  0  0
    3.5981   16.2625    0.0000 H   0  0  0  0  0  0  0  0  0  0  0  0
    3.8250   15.4156    0.0000 H   0  0  0  0  0  0  0  0  0  0  0  0
    4.5380   16.6425    0.0000 H   0  0  0  0  0  0  0  0  0  0  0  0
   20.9214   20.1883    0.0000 H   0  0  0  0  0  0  0  0  0  0  0  0
    3.6720   17.7625    0.0000 H   0  0  0  0  0  0  0  0  0  0  0  0
   22.4500   17.7249    0.0000 H   0  0  0  0  0  0  0  0  0  0  0  0
   22.2037   16.9668    0.0000 H   0  0  0  0  0  0  0  0  0  0  0  0
    6.3301   21.7625    0.0000 H   0  0  0  0  0  0  0  0  0  0  0  0
    7.4040   21.7625    0.0000 H   0  0  0  0  0  0  0  0  0  0  0  0
   12.1972   11.8325    0.0000 H   0  0  0  0  0  0  0  0  0  0  0  0
   12.7341   12.7625    0.0000 H   0  0  0  0  0  0  0  0  0  0  0  0
    3.7456   18.3449    0.0000 H   0  0  0  0  0  0  0  0  0  0  0  0
    3.3471   19.0352    0.0000 H   0  0  0  0  0  0  0  0  0  0  0  0
   24.3983   16.3268    0.0000 H   0  0  0  0  0  0  0  0  0  0  0  0
   10.4651   11.8325    0.0000 H   0  0  0  0  0  0  0  0  0  0  0  0
    1.6584   19.0602    0.0000 H   0  0  0  0  0  0  0  0  0  0  0  0
    2.0569   18.3699    0.0000 H   0  0  0  0  0  0  0  0  0  0  0  0
    2.8796   19.8449    0.0000 H   0  0  0  0  0  0  0  0  0  0  0  0
    2.4810   20.5352    0.0000 H   0  0  0  0  0  0  0  0  0  0  0  0
   22.7241   19.0380    0.0000 H   0  0  0  0  0  0  0  0  0  0  0  0
   24.6017   16.9528    0.0000 H   0  0  0  0  0  0  0  0  0  0  0  0
   25.7161   14.6464    0.0000 H   0  0  0  0  0  0  0  0  0  0  0  0
   25.1828   15.2387    0.0000 H   0  0  0  0  0  0  0  0  0  0  0  0
   23.9280   20.1220    0.0000 H   0  0  0  0  0  0  0  0  0  0  0  0
   25.8056   18.0368    0.0000 H   0  0  0  0  0  0  0  0  0  0  0  0
    0.8660   17.1425    0.0000 H   0  0  0  0  0  0  0  0  0  0  0  0
    0.8660   20.1425    0.0000 H   0  0  0  0  0  0  0  0  0  0  0  0
   24.8437   13.2318    0.0000 H   0  0  0  0  0  0  0  0  0  0  0  0
   26.9241   12.7743    0.0000 H   0  0  0  0  0  0  0  0  0  0  0  0
   25.3917   12.2161    0.0000 H   0  0  0  0  0  0  0  0  0  0  0  0
   25.1454   11.4581    0.0000 H   0  0  0  0  0  0  0  0  0  0  0  0
   31.5896    6.4869    0.0000 H   0  0  0  0  0  0  0  0  0  0  0  0
   29.1631   10.5717    0.0000 H   0  0  0  0  0  0  0  0  0  0  0  0
   27.8752   12.4653    0.0000 H   0  0  0  0  0  0  0  0  0  0  0  0
   33.0845    8.1183    0.0000 H   0  0  0  0  0  0  0  0  0  0  0  0
   32.3049    7.9526    0.0000 H   0  0  0  0  0  0  0  0  0  0  0  0
   30.0692    7.8915    0.0000 H   0  0  0  0  0  0  0  0  0  0  0  0
   26.3408   19.6840    0.0000 H   0  0  0  0  0  0  0  0  0  0  0  0
   31.1333    4.4680    0.0000 H   0  0  0  0  0  0  0  0  0  0  0  0
   29.6076   11.9798    0.0000 H   0  0  0  0  0  0  0  0  0  0  0  0
   28.8280   11.8141    0.0000 H   0  0  0  0  0  0  0  0  0  0  0  0
   32.8479    5.7320    0.0000 H   0  0  0  0  0  0  0  0  0  0  0  0
   28.8686    8.3546    0.0000 H   0  0  0  0  0  0  0  0  0  0  0  0
   28.6223    7.5966    0.0000 H   0  0  0  0  0  0  0  0  0  0  0  0
   33.2937    3.9890    0.0000 H   0  0  0  0  0  0  0  0  0  0  0  0
   32.7603    4.5813    0.0000 H   0  0  0  0  0  0  0  0  0  0  0  0
   31.3521    8.6038    0.0000 H   0  0  0  0  0  0  0  0  0  0  0  0
   28.3206    9.3703    0.0000 H   0  0  0  0  0  0  0  0  0  0  0  0
   26.2567   10.1864    0.0000 H   0  0  0  0  0  0  0  0  0  0  0  0
   26.5030   10.9444    0.0000 H   0  0  0  0  0  0  0  0  0  0  0  0
   32.2623    2.9676    0.0000 H   0  0  0  0  0  0  0  0  0  0  0  0
   32.7957    2.3752    0.0000 H   0  0  0  0  0  0  0  0  0  0  0  0
    0.5369   22.5725    0.0000 H   0  0  0  0  0  0  0  0  0  0  0  0
    0.0000   21.6425    0.0000 H   0  0  0  0  0  0  0  0  0  0  0  0
   33.6856    5.8152    0.0000 H   0  0  0  0  0  0  0  0  0  0  0  0
   29.7336    6.3249    0.0000 H   0  0  0  0  0  0  0  0  0  0  0  0
   29.9799    7.0829    0.0000 H   0  0  0  0  0  0  0  0  0  0  0  0
   30.3902    3.7988    0.0000 H   0  0  0  0  0  0  0  0  0  0  0  0
   29.9765   10.5760    0.0000 H   0  0  0  0  0  0  0  0  0  0  0  0
   30.7562   10.7417    0.0000 H   0  0  0  0  0  0  0  0  0  0  0  0
    2.2690   22.5725    0.0000 H   0  0  0  0  0  0  0  0  0  0  0  0
   35.4076    5.8108    0.0000 H   0  0  0  0  0  0  0  0  0  0  0  0
   34.4526    2.7018    0.0000 H   0  0  0  0  0  0  0  0  0  0  0  0
   33.9193    3.2941    0.0000 H   0  0  0  0  0  0  0  0  0  0  0  0
   34.1535    9.2065    0.0000 H   0  0  0  0  0  0  0  0  0  0  0  0
   31.0343    1.7684    0.0000 H   0  0  0  0  0  0  0  0  0  0  0  0
   36.7714    7.2976    0.0000 H   0  0  0  0  0  0  0  0  0  0  0  0
   29.7846    2.8164    0.0000 H   0  0  0  0  0  0  0  0  0  0  0  0
   29.0050    2.6507    0.0000 H   0  0  0  0  0  0  0  0  0  0  0  0
   35.6346    9.8629    0.0000 H   0  0  0  0  0  0  0  0  0  0  0  0
   36.9436    8.9084    0.0000 H   0  0  0  0  0  0  0  0  0  0  0  0
   33.5802    1.2872    0.0000 H   0  0  0  0  0  0  0  0  0  0  0  0
   28.4593    1.0524    0.0000 H   0  0  0  0  0  0  0  0  0  0  0  0
   29.2390    1.2181    0.0000 H   0  0  0  0  0  0  0  0  0  0  0  0
   24.7865    8.9360    0.0000 H   0  0  0  0  0  0  0  0  0  0  0  0
   25.5218    8.4584    0.0000 H   0  0  0  0  0  0  0  0  0  0  0  0
   25.9994    9.1938    0.0000 H   0  0  0  0  0  0  0  0  0  0  0  0
   30.1918    0.5669    0.0000 H   0  0  0  0  0  0  0  0  0  0  0  0
   31.2422    0.7902    0.0000 H   0  0  0  0  0  0  0  0  0  0  0  0
   28.4091    4.7885    0.0000 H   0  0  0  0  0  0  0  0  0  0  0  0
   29.4595    5.0118    0.0000 H   0  0  0  0  0  0  0  0  0  0  0  0
   32.4226   11.8984    0.0000 H   0  0  0  0  0  0  0  0  0  0  0  0
   35.7895    0.2233    0.0000 H   0  0  0  0  0  0  0  0  0  0  0  0
   34.7391    0.0000    0.0000 H   0  0  0  0  0  0  0  0  0  0  0  0
   26.6413    1.7005    0.0000 H   0  0  0  0  0  0  0  0  0  0  0  0
   26.5955    0.8249    0.0000 H   0  0  0  0  0  0  0  0  0  0  0  0
   27.4711    0.7790    0.0000 H   0  0  0  0  0  0  0  0  0  0  0  0
   36.3248    1.8706    0.0000 H   0  0  0  0  0  0  0  0  0  0  0  0
   17.9158   34.6952    0.0000 H   0  0  0  0  0  0  0  0  0  0  0  0
   17.0688   34.4683    0.0000 H   0  0  0  0  0  0  0  0  0  0  0  0
   17.2958   33.6214    0.0000 H   0  0  0  0  0  0  0  0  0  0  0  0
   17.9158   30.6543    0.0000 H   0  0  0  0  0  0  0  0  0  0  0  0
   17.0688   30.4274    0.0000 H   0  0  0  0  0  0  0  0  0  0  0  0
   17.2958   29.5805    0.0000 H   0  0  0  0  0  0  0  0  0  0  0  0
   17.9158   26.6134    0.0000 H   0  0  0  0  0  0  0  0  0  0  0  0
   17.0688   26.3865    0.0000 H   0  0  0  0  0  0  0  0  0  0  0  0
   17.2958   25.5396    0.0000 H   0  0  0  0  0  0  0  0  0  0  0  0
   19.8747   33.8483    0.0000 H   0  0  0  0  0  0  0  0  0  0  0  0
   19.8747   29.8074    0.0000 H   0  0  0  0  0  0  0  0  0  0  0  0
   19.8747   25.7665    0.0000 H   0  0  0  0  0  0  0  0  0  0  0  0
  1137  1  0  0  0  0
  1156  1  0  0  0  0
  2157  1  0  0  0  0
  2159  1  0  0  0  0
  3 63  2  0  0  0  0
  4 64  2  0  0  0  0
  5 70  2  0  0  0  0
  6 72  2  0  0  0  0
  7 81  2  0  0  0  0
  8 83  2  0  0  0  0
  9 88  1  0  0  0  0
  9225  1  0  0  0  0
 10 99  2  0  0  0  0
 11100  2  0  0  0  0
 12113  1  0  0  0  0
 12255  1  0  0  0  0
 13113  2  0  0  0  0
 14114  2  0  0  0  0
 15121  1  0  0  0  0
 15267  1  0  0  0  0
 16123  2  0  0  0  0
 17131  2  0  0  0  0
 18133  2  0  0  0  0
 19138  2  0  0  0  0
 20139  2  0  0  0  0
 21148  2  0  0  0  0
 22155  1  0  0  0  0
 22311  1  0  0  0  0
 23153  2  0  0  0  0
 24155  2  0  0  0  0
 25163  1  0  0  0  0
 25327  1  0  0  0  0
 26164  1  0  0  0  0
 26328  1  0  0  0  0
 27165  1  0  0  0  0
 27329  1  0  0  0  0
 28163  2  0  0  0  0
 29164  2  0  0  0  0
 30165  2  0  0  0  0
 31 59  1  0  0  0  0
 31 62  1  0  0  0  0
 31 63  1  0  0  0  0
 32 64  1  0  0  0  0
 66 32  1  1  0  0  0
 32174  1  0  0  0  0
 65 33  1  1  0  0  0
 33 72  1  0  0  0  0
 33178  1  0  0  0  0
 34 70  1  0  0  0  0
 74 34  1  6  0  0  0
 34184  1  0  0  0  0
 73 35  1  6  0  0  0
 35 83  1  0  0  0  0
 35194  1  0  0  0  0
 36 75  1  0  0  0  0
 36 98  1  0  0  0  0
 36201  1  0  0  0  0
 37 81  1  0  0  0  0
 89 37  1  1  0  0  0
 37203  1  0  0  0  0
 80 38  1  1  0  0  0
 38100  1  0  0  0  0
 38210  1  0  0  0  0
 39 99  1  0  0  0  0
108 39  1  6  0  0  0
 39232  1  0  0  0  0
 40 97  1  0  0  0  0
 40237  1  0  0  0  0
 40238  1  0  0  0  0
 41 98  1  0  0  0  0
 41239  1  0  0  0  0
 41240  1  0  0  0  0
102 42  1  6  0  0  0
 42114  1  0  0  0  0
 42243  1  0  0  0  0
 43 98  2  0  0  0  0
 43244  1  0  0  0  0
 44115  1  0  0  0  0
 44124  1  0  0  0  0
 44256  1  0  0  0  0
 45118  1  0  0  0  0
 45123  1  0  0  0  0
 45257  1  0  0  0  0
122 46  1  1  0  0  0
 46131  1  0  0  0  0
 46263  1  0  0  0  0
126 47  1  6  0  0  0
 47139  1  0  0  0  0
 47271  1  0  0  0  0
129 48  1  1  0  0  0
 48133  1  0  0  0  0
 48276  1  0  0  0  0
127 49  1  6  0  0  0
 49138  1  0  0  0  0
 49277  1  0  0  0  0
 50124  1  0  0  0  0
 50282  1  0  0  0  0
 50283  1  0  0  0  0
130 51  1  6  0  0  0
 51148  1  0  0  0  0
 51287  1  0  0  0  0
 52124  2  0  0  0  0
 52290  1  0  0  0  0
 53142  1  0  0  0  0
 53143  1  0  0  0  0
 53291  1  0  0  0  0
 54146  1  0  0  0  0
 54158  1  0  0  0  0
 54301  1  0  0  0  0
149 55  1  1  0  0  0
 55307  1  0  0  0  0
 55308  1  0  0  0  0
 56153  1  0  0  0  0
 56309  1  0  0  0  0
 56310  1  0  0  0  0
 57158  1  0  0  0  0
 57312  1  0  0  0  0
 57313  1  0  0  0  0
 58158  2  0  0  0  0
 58317  1  0  0  0  0
 59 60  1  0  0  0  0
 59 64  1  6  0  0  0
 59166  1  0  0  0  0
 60 61  1  0  0  0  0
 60167  1  0  0  0  0
 60168  1  0  0  0  0
 61 62  1  0  0  0  0
 61169  1  0  0  0  0
 61170  1  0  0  0  0
 62171  1  0  0  0  0
 62172  1  0  0  0  0
 63 65  1  0  0  0  0
 65 67  1  0  0  0  0
 65173  1  0  0  0  0
 66 68  1  0  0  0  0
 66 70  1  0  0  0  0
 66175  1  0  0  0  0
 67 69  1  0  0  0  0
 67176  1  0  0  0  0
 67177  1  0  0  0  0
 68 71  1  0  0  0  0
 68179  1  0  0  0  0
 68180  1  0  0  0  0
 69 77  2  0  0  0  0
 69 78  1  0  0  0  0
 71 75  1  0  0  0  0
 71181  1  0  0  0  0
 71182  1  0  0  0  0
 72 73  1  0  0  0  0
 73 76  1  0  0  0  0
 73183  1  0  0  0  0
 74 79  1  0  0  0  0
 74 81  1  0  0  0  0
 74185  1  0  0  0  0
 75186  1  0  0  0  0
 75187  1  0  0  0  0
 76 87  1  0  0  0  0
 76188  1  0  0  0  0
 76189  1  0  0  0  0
 77 85  1  0  0  0  0
 77190  1  0  0  0  0
 78 86  2  0  0  0  0
 78191  1  0  0  0  0
 79 82  1  0  0  0  0
 79192  1  0  0  0  0
 79193  1  0  0  0  0
 80 83  1  0  0  0  0
 80 84  1  0  0  0  0
 80195  1  0  0  0  0
 82 90  1  0  0  0  0
 82196  1  0  0  0  0
 82197  1  0  0  0  0
 84 91  1  0  0  0  0
 84 93  1  6  0  0  0
 84198  1  0  0  0  0
 85 88  2  0  0  0  0
 85199  1  0  0  0  0
 86 88  1  0  0  0  0
 86200  1  0  0  0  0
 87 95  2  0  0  0  0
 87 96  1  0  0  0  0
 89 92  1  0  0  0  0
 89 99  1  0  0  0  0
 89202  1  0  0  0  0
 90 97  1  0  0  0  0
 90204  1  0  0  0  0
 90205  1  0  0  0  0
 91101  1  0  0  0  0
 91206  1  0  0  0  0
 91207  1  0  0  0  0
 92 94  1  0  0  0  0
 92208  1  0  0  0  0
 92209  1  0  0  0  0
 93211  1  0  0  0  0
 93212  1  0  0  0  0
 93213  1  0  0  0  0
 94105  1  0  0  0  0
 94106  1  0  0  0  0
 94214  1  0  0  0  0
 95103  1  0  0  0  0
 95215  1  0  0  0  0
 96104  2  0  0  0  0
 96216  1  0  0  0  0
 97217  1  0  0  0  0
 97218  1  0  0  0  0
100102  1  0  0  0  0
101219  1  0  0  0  0
101220  1  0  0  0  0
101221  1  0  0  0  0
102109  1  0  0  0  0
102222  1  0  0  0  0
103107  2  0  0  0  0
103223  1  0  0  0  0
104107  1  0  0  0  0
104224  1  0  0  0  0
105226  1  0  0  0  0
105227  1  0  0  0  0
105228  1  0  0  0  0
106229  1  0  0  0  0
106230  1  0  0  0  0
106231  1  0  0  0  0
107233  1  0  0  0  0
108110  1  0  0  0  0
108113  1  0  0  0  0
108234  1  0  0  0  0
109111  1  0  0  0  0
109235  1  0  0  0  0
109236  1  0  0  0  0
110112  1  0  0  0  0
110241  1  0  0  0  0
110242  1  0  0  0  0
111116  2  0  0  0  0
111117  1  0  0  0  0
112115  1  0  0  0  0
112245  1  0  0  0  0
112246  1  0  0  0  0
114118  1  0  0  0  0
115247  1  0  0  0  0
115248  1  0  0  0  0
116119  1  0  0  0  0
116249  1  0  0  0  0
117120  2  0  0  0  0
117250  1  0  0  0  0
118251  1  0  0  0  0
118252  1  0  0  0  0
119121  2  0  0  0  0
119253  1  0  0  0  0
120121  1  0  0  0  0
120254  1  0  0  0  0
122123  1  0  0  0  0
122125  1  0  0  0  0
122258  1  0  0  0  0
125137  1  0  0  0  0
125259  1  0  0  0  0
125260  1  0  0  0  0
126128  1  0  0  0  0
126133  1  0  0  0  0
126261  1  0  0  0  0
127131  1  0  0  0  0
127134  1  0  0  0  0
127262  1  0  0  0  0
128132  1  0  0  0  0
128264  1  0  0  0  0
128265  1  0  0  0  0
129135  1  0  0  0  0
129138  1  0  0  0  0
129266  1  0  0  0  0
130136  1  0  0  0  0
130139  1  0  0  0  0
130268  1  0  0  0  0
132140  1  0  0  0  0
132143  2  0  0  0  0
134145  1  0  0  0  0
134269  1  0  0  0  0
134270  1  0  0  0  0
135144  1  0  0  0  0
135272  1  0  0  0  0
135273  1  0  0  0  0
136141  1  0  0  0  0
136274  1  0  0  0  0
136275  1  0  0  0  0
137278  1  0  0  0  0
137279  1  0  0  0  0
140142  1  0  0  0  0
140147  2  0  0  0  0
141146  1  0  0  0  0
141280  1  0  0  0  0
141281  1  0  0  0  0
142150  2  0  0  0  0
143284  1  0  0  0  0
144153  1  0  0  0  0
144285  1  0  0  0  0
144286  1  0  0  0  0
145155  1  0  0  0  0
145288  1  0  0  0  0
145289  1  0  0  0  0
146292  1  0  0  0  0
146293  1  0  0  0  0
147152  1  0  0  0  0
147294  1  0  0  0  0
148149  1  0  0  0  0
149151  1  0  0  0  0
149295  1  0  0  0  0
150154  1  0  0  0  0
150296  1  0  0  0  0
151157  1  0  0  0  0
151297  1  0  0  0  0
151298  1  0  0  0  0
152154  2  0  0  0  0
152299  1  0  0  0  0
154300  1  0  0  0  0
156304  1  0  0  0  0
156305  1  0  0  0  0
156306  1  0  0  0  0
157302  1  0  0  0  0
157303  1  0  0  0  0
159314  1  0  0  0  0
159315  1  0  0  0  0
159316  1  0  0  0  0
160163  1  0  0  0  0
160318  1  0  0  0  0
160319  1  0  0  0  0
160320  1  0  0  0  0
161164  1  0  0  0  0
161321  1  0  0  0  0
161322  1  0  0  0  0
161323  1  0  0  0  0
162165  1  0  0  0  0
162324  1  0  0  0  0
162325  1  0  0  0  0
162326  1  0  0  0  0
M  END
> <PUBCHEM_COMPOUND_CID>
164946842

> <PUBCHEM_COMPOUND_CANONICALIZED>
1

> <PUBCHEM_CACTVS_COMPLEXITY>
4540

> <PUBCHEM_CACTVS_HBOND_ACCEPTOR>
35

> <PUBCHEM_CACTVS_HBOND_DONOR>
34

> <PUBCHEM_CACTVS_ROTATABLE_BOND>
73

> <PUBCHEM_CACTVS_SUBSKEYS>
AAADcfB//gBgAAAAAAAAAAAAAAAAAWLAAAAwYMGAAAAAAFgB9AAAHgQQCAAADSzF3gS/zvPJkgioAzX3fACCgCCxIjAJ2aG+bJiKZvLimbOUcAhk1hPY2Ae83+KOoAAAAAACAABAAAAAAAQAAAAAAAAAAA==

> <PUBCHEM_IUPAC_OPENEYE_NAME>
acetic acid;(4S)-4-[[(2S)-5-amino-2-[[(2S)-2-[[(2S)-2-[[(2S)-2-amino-4-methylsulfanyl-butanoyl]amino]-5-guanidino-pentanoyl]amino]-3-(1H-indol-3-yl)propanoyl]amino]-5-oxo-pentanoyl]amino]-5-[[(1S)-1-[[2-[[(1S)-2-[[(1S,2S)-1-[[(1S)-2-[[(1S)-2-[(2S)-2-[[(1S)-1-[[(1S)-5-amino-1-[[(1S)-1-[[(1S)-1-carboxy-4-guanidino-butyl]carbamoyl]-3-methyl-butyl]carbamoyl]pentyl]carbamoyl]-4-guanidino-butyl]carbamoyl]pyrrolidin-1-yl]-1-[(4-hydroxyphenyl)methyl]-2-oxo-ethyl]amino]-1-benzyl-2-oxo-ethyl]carbamoyl]-2-methyl-butyl]amino]-1-[(4-hydroxyphenyl)methyl]-2-oxo-ethyl]amino]-2-oxo-ethyl]carbamoyl]-3-methylsulfanyl-propyl]amino]-5-oxo-pentanoic acid

> <PUBCHEM_IUPAC_CAS_NAME>
acetic acid;(4S)-4-[[(2S)-5-amino-2-[[(2S)-2-[[(2S)-2-[[(2S)-2-amino-4-(methylthio)-1-oxobutyl]amino]-5-carbamimidamido-1-oxopentyl]amino]-3-(1H-indol-3-yl)-1-oxopropyl]amino]-1,5-dioxopentyl]amino]-5-[[(2S)-1-[[2-[[(2S)-1-[[(2S,3S)-1-[[(2S)-1-[[(2S)-1-[(2S)-2-[[[(2S)-1-[[(2S)-6-amino-1-[[(2S)-1-[[(1S)-4-carbamimidamido-1-carboxybutyl]amino]-4-methyl-1-oxopentan-2-yl]amino]-1-oxohexan-2-yl]amino]-5-carbamimidamido-1-oxopentan-2-yl]amino]-oxomethyl]-1-pyrrolidinyl]-3-(4-hydroxyphenyl)-1-oxopropan-2-yl]amino]-1-oxo-3-phenylpropan-2-yl]amino]-3-methyl-1-oxopentan-2-yl]amino]-3-(4-hydroxyphenyl)-1-oxopropan-2-yl]amino]-2-oxoethyl]amino]-4-(methylthio)-1-oxobutan-2-yl]amino]-5-oxopentanoic acid

> <PUBCHEM_IUPAC_NAME_MARKUP>
acetic acid;(4<I>S</I>)-4-[[(2<I>S</I>)-5-amino-2-[[(2<I>S</I>)-2-[[(2<I>S</I>)-2-[[(2<I>S</I>)-2-amino-4-methylsulfanylbutanoyl]amino]-5-carbamimidamidopentanoyl]amino]-3-(1<I>H</I>-indol-3-yl)propanoyl]amino]-5-oxopentanoyl]amino]-5-[[(2<I>S</I>)-1-[[2-[[(2<I>S</I>)-1-[[(2<I>S</I>,3<I>S</I>)-1-[[(2<I>S</I>)-1-[[(2<I>S</I>)-1-[(2<I>S</I>)-2-[[(2<I>S</I>)-1-[[(2<I>S</I>)-6-amino-1-[[(2<I>S</I>)-1-[[(1<I>S</I>)-4-carbamimidamido-1-carboxybutyl]amino]-4-methyl-1-oxopentan-2-yl]amino]-1-oxohexan-2-yl]amino]-5-carbamimidamido-1-oxopentan-2-yl]carbamoyl]pyrrolidin-1-yl]-3-(4-hydroxyphenyl)-1-oxopropan-2-yl]amino]-1-oxo-3-phenylpropan-2-yl]amino]-3-methyl-1-oxopentan-2-yl]amino]-3-(4-hydroxyphenyl)-1-oxopropan-2-yl]amino]-2-oxoethyl]amino]-4-methylsulfanyl-1-oxobutan-2-yl]amino]-5-oxopentanoic acid

> <PUBCHEM_IUPAC_NAME>
acetic acid;(4S)-4-[[(2S)-5-amino-2-[[(2S)-2-[[(2S)-2-[[(2S)-2-amino-4-methylsulfanylbutanoyl]amino]-5-carbamimidamidopentanoyl]amino]-3-(1H-indol-3-yl)propanoyl]amino]-5-oxopentanoyl]amino]-5-[[(2S)-1-[[2-[[(2S)-1-[[(2S,3S)-1-[[(2S)-1-[[(2S)-1-[(2S)-2-[[(2S)-1-[[(2S)-6-amino-1-[[(2S)-1-[[(1S)-4-carbamimidamido-1-carboxybutyl]amino]-4-methyl-1-oxopentan-2-yl]amino]-1-oxohexan-2-yl]amino]-5-carbamimidamido-1-oxopentan-2-yl]carbamoyl]pyrrolidin-1-yl]-3-(4-hydroxyphenyl)-1-oxopropan-2-yl]amino]-1-oxo-3-phenylpropan-2-yl]amino]-3-methyl-1-oxopentan-2-yl]amino]-3-(4-hydroxyphenyl)-1-oxopropan-2-yl]amino]-2-oxoethyl]amino]-4-methylsulfanyl-1-oxobutan-2-yl]amino]-5-oxopentanoic acid

> <PUBCHEM_IUPAC_SYSTEMATIC_NAME>
(4S)-4-[[(2S)-5-azanyl-2-[[(2S)-2-[[(2S)-2-[[(2S)-2-azanyl-4-methylsulfanyl-butanoyl]amino]-5-carbamimidamido-pentanoyl]amino]-3-(1H-indol-3-yl)propanoyl]amino]-5-oxidanylidene-pentanoyl]amino]-5-[[(2S)-1-[[2-[[(2S)-1-[[(2S,3S)-1-[[(2S)-1-[[(2S)-1-[(2S)-2-[[(2S)-1-[[(2S)-6-azanyl-1-[[(2S)-1-[[(2S)-5-carbamimidamido-1-oxidanyl-1-oxidanylidene-pentan-2-yl]amino]-4-methyl-1-oxidanylidene-pentan-2-yl]amino]-1-oxidanylidene-hexan-2-yl]amino]-5-carbamimidamido-1-oxidanylidene-pentan-2-yl]carbamoyl]pyrrolidin-1-yl]-3-(4-hydroxyphenyl)-1-oxidanylidene-propan-2-yl]amino]-1-oxidanylidene-3-phenyl-propan-2-yl]amino]-3-methyl-1-oxidanylidene-pentan-2-yl]amino]-3-(4-hydroxyphenyl)-1-oxidanylidene-propan-2-yl]amino]-2-oxidanylidene-ethyl]amino]-4-methylsulfanyl-1-oxidanylidene-butan-2-yl]amino]-5-oxidanylidene-pentanoic acid;ethanoic acid

> <PUBCHEM_IUPAC_TRADITIONAL_NAME>
acetic acid;(4S)-4-[[(2S)-5-amino-2-[[(2S)-2-[[(2S)-2-[[(2S)-2-amino-4-(methylthio)butanoyl]amino]-5-guanidino-pentanoyl]amino]-3-(1H-indol-3-yl)propanoyl]amino]-5-keto-pentanoyl]amino]-5-[[(1S)-1-[[2-[[(1S)-2-[[(1S,2S)-1-[[(1S)-2-[[(1S)-2-[(2S)-2-[[(1S)-1-[[(1S)-5-amino-1-[[(1S)-1-[[(1S)-1-carboxy-4-guanidino-butyl]carbamoyl]-3-methyl-butyl]carbamoyl]pentyl]carbamoyl]-4-guanidino-butyl]carbamoyl]pyrrolidino]-1-(4-hydroxybenzyl)-2-keto-ethyl]amino]-1-benzyl-2-keto-ethyl]carbamoyl]-2-methyl-butyl]amino]-1-(4-hydroxybenzyl)-2-keto-ethyl]amino]-2-keto-ethyl]carbamoyl]-3-(methylthio)propyl]amino]-5-keto-valeric acid

> <PUBCHEM_IUPAC_INCHI>
InChI=1S/C101H152N28O22S2.3C2H4O2/c1-7-57(4)83(96(148)126-76(50-58-19-9-8-10-20-58)92(144)127-78(52-60-30-34-63(131)35-31-60)97(149)129-46-18-27-79(129)95(147)122-69(25-16-44-112-100(107)108)86(138)118-67(23-13-14-42-102)87(139)124-74(49-56(2)3)91(143)123-73(98(150)151)26-17-45-113-101(109)110)128-94(146)75(51-59-28-32-62(130)33-29-59)116-81(133)55-115-85(137)72(41-48-153-6)121-90(142)71(37-39-82(134)135)119-89(141)70(36-38-80(104)132)120-93(145)77(53-61-54-114-66-22-12-11-21-64(61)66)125-88(140)68(24-15-43-111-99(105)106)117-84(136)65(103)40-47-152-5;3*1-2(3)4/h8-12,19-22,28-35,54,56-57,65,67-79,83,114,130-131H,7,13-18,23-27,36-53,55,102-103H2,1-6H3,(H2,104,132)(H,115,137)(H,116,133)(H,117,136)(H,118,138)(H,119,141)(H,120,145)(H,121,142)(H,122,147)(H,123,143)(H,124,139)(H,125,140)(H,126,148)(H,127,144)(H,128,146)(H,134,135)(H,150,151)(H4,105,106,111)(H4,107,108,112)(H4,109,110,113);3*1H3,(H,3,4)/t57-,65-,67-,68-,69-,70-,71-,72-,73-,74-,75-,76-,77-,78-,79-,83-;;;/m0.../s1

> <PUBCHEM_IUPAC_INCHIKEY>
XLQJNDHFKKCEKO-HNKPAKAHSA-N

> <PUBCHEM_EXACT_MASS>
2354.1744839

> <PUBCHEM_MOLECULAR_FORMULA>
C107H164N28O28S2

> <PUBCHEM_MOLECULAR_WEIGHT>
2354.8

> <PUBCHEM_SMILES>
CC[C@H](C)[C@@H](C(=O)N[C@@H](CC1=CC=CC=C1)C(=O)N[C@@H](CC2=CC=C(C=C2)O)C(=O)N3CCC[C@H]3C(=O)N[C@@H](CCCNC(=N)N)C(=O)N[C@@H](CCCCN)C(=O)N[C@@H](CC(C)C)C(=O)N[C@@H](CCCNC(=N)N)C(=O)O)NC(=O)[C@H](CC4=CC=C(C=C4)O)NC(=O)CNC(=O)[C@H](CCSC)NC(=O)[C@H](CCC(=O)O)NC(=O)[C@H](CCC(=O)N)NC(=O)[C@H](CC5=CNC6=CC=CC=C65)NC(=O)[C@H](CCCNC(=N)N)NC(=O)[C@H](CCSC)N.CC(=O)O.CC(=O)O.CC(=O)O

> <PUBCHEM_CONNECTIVITY_SMILES>
CCC(C)C(C(=O)NC(CC1=CC=CC=C1)C(=O)NC(CC2=CC=C(C=C2)O)C(=O)N3CCCC3C(=O)NC(CCCNC(=N)N)C(=O)NC(CCCCN)C(=O)NC(CC(C)C)C(=O)NC(CCCNC(=N)N)C(=O)O)NC(=O)C(CC4=CC=C(C=C4)O)NC(=O)CNC(=O)C(CCSC)NC(=O)C(CCC(=O)O)NC(=O)C(CCC(=O)N)NC(=O)C(CC5=CNC6=CC=CC=C65)NC(=O)C(CCCNC(=N)N)NC(=O)C(CCSC)N.CC(=O)O.CC(=O)O.CC(=O)O

> <PUBCHEM_CACTVS_TPSA>
1000

> <PUBCHEM_MONOISOTOPIC_WEIGHT>
2353.1711290

> <PUBCHEM_TOTAL_CHARGE>
0

> <PUBCHEM_HEAVY_ATOM_COUNT>
165

> <PUBCHEM_ATOM_DEF_STEREO_COUNT>
16

> <PUBCHEM_ATOM_UDEF_STEREO_COUNT>
0

> <PUBCHEM_BOND_DEF_STEREO_COUNT>
0

> <PUBCHEM_BOND_UDEF_STEREO_COUNT>
0

> <PUBCHEM_ISOTOPIC_ATOM_COUNT>
0

> <PUBCHEM_COMPONENT_COUNT>
4

> <PUBCHEM_CACTVS_TAUTO_COUNT>
-1

> <PUBCHEM_COORDINATE_TYPE>
1
5
255

> <PUBCHEM_BONDANNOTATIONS>
103  107  8
104  107  8
111  116  8
111  117  8
116  119  8
117  120  8
119  121  8
120  121  8
132  140  8
132  143  8
140  142  8
140  147  8
142  150  8
147  152  8
150  154  8
152  154  8
66  32  5
65  33  5
74  34  6
73  35  6
89  37  5
80  38  5
108  39  6
102  42  6
122  46  5
126  47  6
129  48  5
127  49  6
130  51  6
53  142  8
53  143  8
149  55  5
59  64  6
69  77  8
69  78  8
77  85  8
78  86  8
84  93  6
85  88  8
86  88  8
87  95  8
87  96  8
95  103  8
96  104  8

$$$$
