11765600
  -OEChem-11262517142D

110112  0     1  0  0  0  0  0999 V2000
    9.7011   -0.2379    0.0000 O   0  0  0  0  0  0  0  0  0  0  0  0
   11.7226    2.7476    0.0000 O   0  0  0  0  0  0  0  0  0  0  0  0
    8.5991   -1.0386    0.0000 O   0  0  0  0  0  0  0  0  0  0  0  0
   12.8246    3.5482    0.0000 O   0  0  0  0  0  0  0  0  0  0  0  0
   16.2887    4.5482    0.0000 O   0  0  0  0  0  0  0  0  0  0  0  0
   19.2272    4.7421    0.0000 O   0  0  0  0  0  0  0  0  0  0  0  0
   17.5330    5.1022    0.0000 O   0  0  0  0  0  0  0  0  0  0  0  0
    5.1350   -2.0386    0.0000 O   0  0  0  0  0  0  0  0  0  0  0  0
    5.1350   -5.0386    0.0000 O   0  0  0  0  0  0  0  0  0  0  0  0
    7.7331    0.4614    0.0000 N   0  0  0  0  0  0  0  0  0  0  0  0
   12.8816    1.4604    0.0000 N   0  0  0  0  0  0  0  0  0  0  0  0
   10.2363    1.4093    0.0000 N   0  0  0  0  0  0  0  0  0  0  0  0
   17.1547    3.0482    0.0000 N   0  0  0  0  0  0  0  0  0  0  0  0
   14.5566    3.5482    0.0000 N   0  0  0  0  0  0  0  0  0  0  0  0
    6.8671   -2.0386    0.0000 N   0  0  0  0  0  0  0  0  0  0  0  0
   11.8111   -1.8341    0.0000 N   0  0  0  0  0  0  0  0  0  0  0  0
    6.8671   -4.0386    0.0000 N   0  0  0  0  0  0  0  0  0  0  0  0
    2.5369   -0.5386    0.0000 N   0  0  0  0  0  0  0  0  0  0  0  0
   11.2759   -3.4814    0.0000 N   0  0  0  0  0  0  0  0  0  0  0  0
   12.9701   -3.1213    0.0000 N   0  0  0  0  0  0  0  0  0  0  0  0
    8.5421    1.0492    0.0000 C   0  0  1  0  0  0  0  0  0  0  0  0
   13.6906    2.0482    0.0000 C   0  0  1  0  0  0  0  0  0  0  0  0
    8.2331    2.0003    0.0000 C   0  0  0  0  0  0  0  0  0  0  0  0
    7.2331    2.0003    0.0000 C   0  0  0  0  0  0  0  0  0  0  0  0
    6.9241    1.0492    0.0000 C   0  0  0  0  0  0  0  0  0  0  0  0
   14.4996    1.4604    0.0000 C   0  0  0  0  0  0  0  0  0  0  0  0
   13.1906    0.5094    0.0000 C   0  0  0  0  0  0  0  0  0  0  0  0
   14.1906    0.5094    0.0000 C   0  0  0  0  0  0  0  0  0  0  0  0
   11.1874    1.1003    0.0000 C   0  0  2  0  0  0  0  0  0  0  0  0
    9.4932    0.7402    0.0000 C   0  0  0  0  0  0  0  0  0  0  0  0
   11.9305    1.7695    0.0000 C   0  0  0  0  0  0  0  0  0  0  0  0
    7.7331   -0.5386    0.0000 C   0  0  0  0  0  0  0  0  0  0  0  0
    6.8671   -1.0386    0.0000 C   0  0  2  0  0  0  0  0  0  0  0  0
   11.3953    0.1222    0.0000 C   0  0  0  0  0  0  0  0  0  0  0  0
   13.6906    3.0482    0.0000 C   0  0  0  0  0  0  0  0  0  0  0  0
    6.0010   -0.5386    0.0000 C   0  0  0  0  0  0  0  0  0  0  0  0
   18.0682    3.4550    0.0000 C   0  0  1  0  0  0  0  0  0  0  0  0
   18.7374    2.7118    0.0000 C   0  0  0  0  0  0  0  0  0  0  0  0
   17.2592    2.0537    0.0000 C   0  0  0  0  0  0  0  0  0  0  0  0
   18.2374    1.8458    0.0000 C   0  0  0  0  0  0  0  0  0  0  0  0
   12.3463   -0.1868    0.0000 C   0  0  0  0  0  0  0  0  0  0  0  0
   15.4226    3.0482    0.0000 C   0  0  0  0  0  0  0  0  0  0  0  0
    5.1350   -1.0386    0.0000 C   0  0  0  0  0  0  0  0  0  0  0  0
   16.2887    3.5482    0.0000 C   0  0  0  0  0  0  0  0  0  0  0  0
   12.5542   -1.1650    0.0000 C   0  0  0  0  0  0  0  0  0  0  0  0
    4.2690   -0.5386    0.0000 C   0  0  0  0  0  0  0  0  0  0  0  0
   18.2761    4.4331    0.0000 C   0  0  0  0  0  0  0  0  0  0  0  0
    6.0010   -2.5386    0.0000 C   0  0  0  0  0  0  0  0  0  0  0  0
    6.0010   -3.5386    0.0000 C   0  0  2  0  0  0  0  0  0  0  0  0
    3.4030   -1.0386    0.0000 C   0  0  0  0  0  0  0  0  0  0  0  0
    5.1350   -4.0386    0.0000 C   0  0  1  0  0  0  0  0  0  0  0  0
    4.2690   -3.5386    0.0000 C   0  0  0  0  0  0  0  0  0  0  0  0
   12.0190   -2.8123    0.0000 C   0  0  0  0  0  0  0  0  0  0  0  0
    8.6391    0.4369    0.0000 H   0  0  0  0  0  0  0  0  0  0  0  0
   13.1382    2.3297    0.0000 H   0  0  0  0  0  0  0  0  0  0  0  0
    8.8395    2.1292    0.0000 H   0  0  0  0  0  0  0  0  0  0  0  0
    8.1683    2.6169    0.0000 H   0  0  0  0  0  0  0  0  0  0  0  0
    7.2979    2.6169    0.0000 H   0  0  0  0  0  0  0  0  0  0  0  0
    6.6266    2.1292    0.0000 H   0  0  0  0  0  0  0  0  0  0  0  0
    6.3577    1.3014    0.0000 H   0  0  0  0  0  0  0  0  0  0  0  0
    6.6141    0.5123    0.0000 H   0  0  0  0  0  0  0  0  0  0  0  0
   15.0660    1.2083    0.0000 H   0  0  0  0  0  0  0  0  0  0  0  0
   14.8096    1.9974    0.0000 H   0  0  0  0  0  0  0  0  0  0  0  0
   12.5841    0.3805    0.0000 H   0  0  0  0  0  0  0  0  0  0  0  0
   13.2554   -0.1072    0.0000 H   0  0  0  0  0  0  0  0  0  0  0  0
   14.1258   -0.1072    0.0000 H   0  0  0  0  0  0  0  0  0  0  0  0
   14.7970    0.3805    0.0000 H   0  0  0  0  0  0  0  0  0  0  0  0
   10.7266    0.6855    0.0000 H   0  0  0  0  0  0  0  0  0  0  0  0
   10.1074    2.0158    0.0000 H   0  0  0  0  0  0  0  0  0  0  0  0
    6.3301   -1.3486    0.0000 H   0  0  0  0  0  0  0  0  0  0  0  0
   10.7757    0.1005    0.0000 H   0  0  0  0  0  0  0  0  0  0  0  0
   11.3090   -0.4918    0.0000 H   0  0  0  0  0  0  0  0  0  0  0  0
    6.3996   -0.0636    0.0000 H   0  0  0  0  0  0  0  0  0  0  0  0
    5.6025   -0.0636    0.0000 H   0  0  0  0  0  0  0  0  0  0  0  0
   17.5864    3.8451    0.0000 H   0  0  0  0  0  0  0  0  0  0  0  0
   19.2389    2.3474    0.0000 H   0  0  0  0  0  0  0  0  0  0  0  0
   19.1522    3.1726    0.0000 H   0  0  0  0  0  0  0  0  0  0  0  0
   16.6392    2.0537    0.0000 H   0  0  0  0  0  0  0  0  0  0  0  0
   17.1944    1.4371    0.0000 H   0  0  0  0  0  0  0  0  0  0  0  0
   18.0458    1.2561    0.0000 H   0  0  0  0  0  0  0  0  0  0  0  0
   18.8038    1.5936    0.0000 H   0  0  0  0  0  0  0  0  0  0  0  0
   12.9660   -0.1652    0.0000 H   0  0  0  0  0  0  0  0  0  0  0  0
   12.4326    0.4271    0.0000 H   0  0  0  0  0  0  0  0  0  0  0  0
   14.5566    4.1682    0.0000 H   0  0  0  0  0  0  0  0  0  0  0  0
   15.0241    2.5733    0.0000 H   0  0  0  0  0  0  0  0  0  0  0  0
   15.8212    2.5733    0.0000 H   0  0  0  0  0  0  0  0  0  0  0  0
    4.7365   -1.5135    0.0000 H   0  0  0  0  0  0  0  0  0  0  0  0
    5.5335   -1.5135    0.0000 H   0  0  0  0  0  0  0  0  0  0  0  0
    7.4040   -2.3486    0.0000 H   0  0  0  0  0  0  0  0  0  0  0  0
   12.8828   -1.6908    0.0000 H   0  0  0  0  0  0  0  0  0  0  0  0
   13.1291   -0.9327    0.0000 H   0  0  0  0  0  0  0  0  0  0  0  0
    4.6675   -0.0636    0.0000 H   0  0  0  0  0  0  0  0  0  0  0  0
    3.8705   -0.0636    0.0000 H   0  0  0  0  0  0  0  0  0  0  0  0
    6.0010   -4.1586    0.0000 H   0  0  0  0  0  0  0  0  0  0  0  0
    3.0044   -1.5135    0.0000 H   0  0  0  0  0  0  0  0  0  0  0  0
    3.8015   -1.5135    0.0000 H   0  0  0  0  0  0  0  0  0  0  0  0
    4.5981   -4.3486    0.0000 H   0  0  0  0  0  0  0  0  0  0  0  0
   19.3561    5.3486    0.0000 H   0  0  0  0  0  0  0  0  0  0  0  0
    6.8671   -4.6586    0.0000 H   0  0  0  0  0  0  0  0  0  0  0  0
    7.4040   -3.7286    0.0000 H   0  0  0  0  0  0  0  0  0  0  0  0
    2.0000   -0.8486    0.0000 H   0  0  0  0  0  0  0  0  0  0  0  0
    2.5369    0.0814    0.0000 H   0  0  0  0  0  0  0  0  0  0  0  0
    4.5790   -3.0016    0.0000 H   0  0  0  0  0  0  0  0  0  0  0  0
    3.7321   -3.2286    0.0000 H   0  0  0  0  0  0  0  0  0  0  0  0
    3.9590   -4.0755    0.0000 H   0  0  0  0  0  0  0  0  0  0  0  0
    4.5981   -5.3486    0.0000 H   0  0  0  0  0  0  0  0  0  0  0  0
   11.4048   -4.0879    0.0000 H   0  0  0  0  0  0  0  0  0  0  0  0
   10.6862   -3.2898    0.0000 H   0  0  0  0  0  0  0  0  0  0  0  0
   13.0990   -3.7277    0.0000 H   0  0  0  0  0  0  0  0  0  0  0  0
   13.4308   -2.7064    0.0000 H   0  0  0  0  0  0  0  0  0  0  0  0
  1 30  2  0  0  0  0
  2 31  2  0  0  0  0
  3 32  2  0  0  0  0
  4 35  2  0  0  0  0
  5 44  2  0  0  0  0
  6 47  1  0  0  0  0
  6 98  1  0  0  0  0
  7 47  2  0  0  0  0
  8 48  2  0  0  0  0
 51  9  1  6  0  0  0
  9106  1  0  0  0  0
 10 21  1  0  0  0  0
 10 25  1  0  0  0  0
 10 32  1  0  0  0  0
 11 22  1  0  0  0  0
 11 27  1  0  0  0  0
 11 31  1  0  0  0  0
 29 12  1  6  0  0  0
 12 30  1  0  0  0  0
 12 69  1  0  0  0  0
 13 37  1  0  0  0  0
 13 39  1  0  0  0  0
 13 44  1  0  0  0  0
 14 35  1  0  0  0  0
 14 42  1  0  0  0  0
 14 84  1  0  0  0  0
 33 15  1  1  0  0  0
 15 48  1  0  0  0  0
 15 89  1  0  0  0  0
 16 45  1  0  0  0  0
 16 53  2  0  0  0  0
 49 17  1  1  0  0  0
 17 99  1  0  0  0  0
 17100  1  0  0  0  0
 18 50  1  0  0  0  0
 18101  1  0  0  0  0
 18102  1  0  0  0  0
 19 53  1  0  0  0  0
 19107  1  0  0  0  0
 19108  1  0  0  0  0
 20 53  1  0  0  0  0
 20109  1  0  0  0  0
 20110  1  0  0  0  0
 21 23  1  0  0  0  0
 21 30  1  1  0  0  0
 21 54  1  0  0  0  0
 22 26  1  0  0  0  0
 22 35  1  6  0  0  0
 22 55  1  0  0  0  0
 23 24  1  0  0  0  0
 23 56  1  0  0  0  0
 23 57  1  0  0  0  0
 24 25  1  0  0  0  0
 24 58  1  0  0  0  0
 24 59  1  0  0  0  0
 25 60  1  0  0  0  0
 25 61  1  0  0  0  0
 26 28  1  0  0  0  0
 26 62  1  0  0  0  0
 26 63  1  0  0  0  0
 27 28  1  0  0  0  0
 27 64  1  0  0  0  0
 27 65  1  0  0  0  0
 28 66  1  0  0  0  0
 28 67  1  0  0  0  0
 29 31  1  0  0  0  0
 29 34  1  0  0  0  0
 29 68  1  0  0  0  0
 32 33  1  0  0  0  0
 33 36  1  0  0  0  0
 33 70  1  0  0  0  0
 34 41  1  0  0  0  0
 34 71  1  0  0  0  0
 34 72  1  0  0  0  0
 36 43  1  0  0  0  0
 36 73  1  0  0  0  0
 36 74  1  0  0  0  0
 37 38  1  0  0  0  0
 37 47  1  6  0  0  0
 37 75  1  0  0  0  0
 38 40  1  0  0  0  0
 38 76  1  0  0  0  0
 38 77  1  0  0  0  0
 39 40  1  0  0  0  0
 39 78  1  0  0  0  0
 39 79  1  0  0  0  0
 40 80  1  0  0  0  0
 40 81  1  0  0  0  0
 41 45  1  0  0  0  0
 41 82  1  0  0  0  0
 41 83  1  0  0  0  0
 42 44  1  0  0  0  0
 42 85  1  0  0  0  0
 42 86  1  0  0  0  0
 43 46  1  0  0  0  0
 43 87  1  0  0  0  0
 43 88  1  0  0  0  0
 45 90  1  0  0  0  0
 45 91  1  0  0  0  0
 46 50  1  0  0  0  0
 46 92  1  0  0  0  0
 46 93  1  0  0  0  0
 48 49  1  0  0  0  0
 49 51  1  0  0  0  0
 49 94  1  0  0  0  0
 50 95  1  0  0  0  0
 50 96  1  0  0  0  0
 51 52  1  0  0  0  0
 51 97  1  0  0  0  0
 52103  1  0  0  0  0
 52104  1  0  0  0  0
 52105  1  0  0  0  0
M  END
> <PUBCHEM_COMPOUND_CID>
11765600

> <PUBCHEM_COMPOUND_CANONICALIZED>
1

> <PUBCHEM_CACTVS_COMPLEXITY>
1360

> <PUBCHEM_CACTVS_HBOND_ACCEPTOR>
12

> <PUBCHEM_CACTVS_HBOND_DONOR>
9

> <PUBCHEM_CACTVS_ROTATABLE_BOND>
19

> <PUBCHEM_CACTVS_SUBSKEYS>
AAADcfB//AAAAAAAAAAAAAAAAAAAAWLFgAAAAAAAAAAAAAAAAAAAHgAQCAAACDzhgAYDCAPAAgAoAAGQPAAAAAEAAAAAAIGIAAACUBYAgCAUQAAGNgCQAAGYGQIAAAAAAAAAAAAAAAAAAAAAAAAAAAAAAA==

> <PUBCHEM_IUPAC_OPENEYE_NAME>
(2S)-1-[2-[[(2S)-1-[(2S)-2-[[(2S)-1-[(2S)-6-amino-2-[[(2S,3R)-2-amino-3-hydroxy-butanoyl]amino]hexanoyl]pyrrolidine-2-carbonyl]amino]-5-guanidino-pentanoyl]pyrrolidine-2-carbonyl]amino]acetyl]pyrrolidine-2-carboxylic acid

> <PUBCHEM_IUPAC_CAS_NAME>
(2S)-1-[2-[[[(2S)-1-[(2S)-2-[[[(2S)-1-[(2S)-6-amino-2-[[(2S,3R)-2-amino-3-hydroxy-1-oxobutyl]amino]-1-oxohexyl]-2-pyrrolidinyl]-oxomethyl]amino]-5-(diaminomethylideneamino)-1-oxopentyl]-2-pyrrolidinyl]-oxomethyl]amino]-1-oxoethyl]-2-pyrrolidinecarboxylic acid

> <PUBCHEM_IUPAC_NAME_MARKUP>
(2<I>S</I>)-1-[2-[[(2<I>S</I>)-1-[(2<I>S</I>)-2-[[(2<I>S</I>)-1-[(2<I>S</I>)-6-amino-2-[[(2<I>S</I>,3<I>R</I>)-2-amino-3-hydroxybutanoyl]amino]hexanoyl]pyrrolidine-2-carbonyl]amino]-5-(diaminomethylideneamino)pentanoyl]pyrrolidine-2-carbonyl]amino]acetyl]pyrrolidine-2-carboxylic acid

> <PUBCHEM_IUPAC_NAME>
(2S)-1-[2-[[(2S)-1-[(2S)-2-[[(2S)-1-[(2S)-6-amino-2-[[(2S,3R)-2-amino-3-hydroxybutanoyl]amino]hexanoyl]pyrrolidine-2-carbonyl]amino]-5-(diaminomethylideneamino)pentanoyl]pyrrolidine-2-carbonyl]amino]acetyl]pyrrolidine-2-carboxylic acid

> <PUBCHEM_IUPAC_SYSTEMATIC_NAME>
(2S)-1-[2-[[(2S)-1-[(2S)-2-[[(2S)-1-[(2S)-6-azanyl-2-[[(2S,3R)-2-azanyl-3-oxidanyl-butanoyl]amino]hexanoyl]pyrrolidin-2-yl]carbonylamino]-5-[bis(azanyl)methylideneamino]pentanoyl]pyrrolidin-2-yl]carbonylamino]ethanoyl]pyrrolidine-2-carboxylic acid

> <PUBCHEM_IUPAC_TRADITIONAL_NAME>
(2S)-1-[2-[[(2S)-1-[(2S)-2-[[(2S)-1-[(2S)-6-amino-2-[[(2S,3R)-2-amino-3-hydroxy-butanoyl]amino]hexanoyl]prolyl]amino]-5-guanidino-pentanoyl]prolyl]amino]acetyl]proline

> <PUBCHEM_IUPAC_INCHI>
InChI=1S/C33H57N11O9/c1-19(45)26(35)29(49)41-20(8-2-3-13-34)30(50)44-17-6-11-23(44)28(48)40-21(9-4-14-38-33(36)37)31(51)43-16-5-10-22(43)27(47)39-18-25(46)42-15-7-12-24(42)32(52)53/h19-24,26,45H,2-18,34-35H2,1H3,(H,39,47)(H,40,48)(H,41,49)(H,52,53)(H4,36,37,38)/t19-,20+,21+,22+,23+,24+,26+/m1/s1

> <PUBCHEM_IUPAC_INCHIKEY>
JTDTXGMXNXBGBZ-YVHUGQOKSA-N

> <PUBCHEM_XLOGP3_AA>
-6.1

> <PUBCHEM_EXACT_MASS>
751.43407244

> <PUBCHEM_MOLECULAR_FORMULA>
C33H57N11O9

> <PUBCHEM_MOLECULAR_WEIGHT>
751.9

> <PUBCHEM_SMILES>
C[C@H]([C@@H](C(=O)N[C@@H](CCCCN)C(=O)N1CCC[C@H]1C(=O)N[C@@H](CCCN=C(N)N)C(=O)N2CCC[C@H]2C(=O)NCC(=O)N3CCC[C@H]3C(=O)O)N)O

> <PUBCHEM_CONNECTIVITY_SMILES>
CC(C(C(=O)NC(CCCCN)C(=O)N1CCCC1C(=O)NC(CCCN=C(N)N)C(=O)N2CCCC2C(=O)NCC(=O)N3CCCC3C(=O)O)N)O

> <PUBCHEM_CACTVS_TPSA>
322

> <PUBCHEM_MONOISOTOPIC_WEIGHT>
751.43407244

> <PUBCHEM_TOTAL_CHARGE>
0

> <PUBCHEM_HEAVY_ATOM_COUNT>
53

> <PUBCHEM_ATOM_DEF_STEREO_COUNT>
7

> <PUBCHEM_ATOM_UDEF_STEREO_COUNT>
0

> <PUBCHEM_BOND_DEF_STEREO_COUNT>
0

> <PUBCHEM_BOND_UDEF_STEREO_COUNT>
0

> <PUBCHEM_ISOTOPIC_ATOM_COUNT>
0

> <PUBCHEM_COMPONENT_COUNT>
1

> <PUBCHEM_CACTVS_TAUTO_COUNT>
-1

> <PUBCHEM_COORDINATE_TYPE>
1
5
255

> <PUBCHEM_BONDANNOTATIONS>
29  12  6
33  15  5
49  17  5
21  30  5
22  35  6
37  47  6
51  9  6

$$$$
