9811102
  -OEChem-11262517142D

108111  0     1  0  0  0  0  0999 V2000
   12.2429   -4.6312    0.0000 S   0  0  0  0  0  0  0  0  0  0  0  0
    5.3147    1.3689    0.0000 O   0  0  0  0  0  0  0  0  0  0  0  0
    5.1724    2.7235    0.0000 O   0  0  0  0  0  0  0  0  0  0  0  0
    5.9155    3.3926    0.0000 O   0  0  0  0  0  0  0  0  0  0  0  0
    8.8301    3.8139    0.0000 O   0  0  0  0  0  0  0  0  0  0  0  0
    7.2478    3.1094    0.0000 O   0  0  0  0  0  0  0  0  0  0  0  0
    6.1808    0.8688    0.0000 O   0  0  0  0  0  0  0  0  0  0  0  0
    8.7788   -1.6312    0.0000 O   0  0  0  0  0  0  0  0  0  0  0  0
    7.9128   -5.1312    0.0000 O   0  0  0  0  0  0  0  0  0  0  0  0
    6.1808   -6.1312    0.0000 O   0  0  0  0  0  0  0  0  0  0  0  0
    5.3147   -4.6312    0.0000 O   0  0  0  0  0  0  0  0  0  0  0  0
    3.5827    1.3689    0.0000 N   0  0  0  0  0  0  0  0  0  0  0  0
    6.4507    5.0399    0.0000 N   0  0  0  0  0  0  0  0  0  0  0  0
    4.0134    4.0107    0.0000 N   0  0  0  0  0  0  0  0  0  0  0  0
    5.3147   -0.6312    0.0000 N   0  0  0  0  0  0  0  0  0  0  0  0
    7.0468   -1.6312    0.0000 N   0  0  0  0  0  0  0  0  0  0  0  0
    8.7788   -3.6312    0.0000 N   0  0  0  0  0  0  0  0  0  0  0  0
    8.7218    1.4566    0.0000 N   0  0  0  0  0  0  0  0  0  0  0  0
    7.4128    2.4077    0.0000 N   0  0  0  0  0  0  0  0  0  0  0  0
    9.6449   -6.1312    0.0000 N   0  0  0  0  0  0  0  0  0  0  0  0
    3.4782    2.3634    0.0000 C   0  0  1  0  0  0  0  0  0  0  0  0
    2.5000    2.5713    0.0000 C   0  0  0  0  0  0  0  0  0  0  0  0
    2.0000    1.7053    0.0000 C   0  0  0  0  0  0  0  0  0  0  0  0
    2.6691    0.9621    0.0000 C   0  0  0  0  0  0  0  0  0  0  0  0
    4.4487    0.8688    0.0000 C   0  0  0  0  0  0  0  0  0  0  0  0
    4.2213    3.0325    0.0000 C   0  0  0  0  0  0  0  0  0  0  0  0
    7.4289    4.8320    0.0000 C   0  0  1  0  0  0  0  0  0  0  0  0
    4.4487   -0.1312    0.0000 C   0  0  2  0  0  0  0  0  0  0  0  0
    7.9289    5.6980    0.0000 C   0  0  0  0  0  0  0  0  0  0  0  0
    7.2597    6.4412    0.0000 C   0  0  0  0  0  0  0  0  0  0  0  0
    6.3462    6.0344    0.0000 C   0  0  0  0  0  0  0  0  0  0  0  0
    4.7565    4.6798    0.0000 C   0  0  0  0  0  0  0  0  0  0  0  0
    5.7076    4.3708    0.0000 C   0  0  0  0  0  0  0  0  0  0  0  0
    3.5827   -0.6312    0.0000 C   0  0  0  0  0  0  0  0  0  0  0  0
    7.8356    3.9184    0.0000 C   0  0  0  0  0  0  0  0  0  0  0  0
    3.5827   -1.6312    0.0000 C   0  0  0  0  0  0  0  0  0  0  0  0
    6.1808   -0.1312    0.0000 C   0  0  0  0  0  0  0  0  0  0  0  0
    7.0468   -0.6312    0.0000 C   0  0  2  0  0  0  0  0  0  0  0  0
    7.9128   -0.1312    0.0000 C   0  0  0  0  0  0  0  0  0  0  0  0
    4.4487   -2.1312    0.0000 C   0  0  0  0  0  0  0  0  0  0  0  0
    2.7167   -2.1312    0.0000 C   0  0  0  0  0  0  0  0  0  0  0  0
    7.9128   -3.1312    0.0000 C   0  0  2  0  0  0  0  0  0  0  0  0
    7.9128   -2.1312    0.0000 C   0  0  0  0  0  0  0  0  0  0  0  0
    7.9128    0.8688    0.0000 C   0  0  0  0  0  0  0  0  0  0  0  0
    4.4487   -3.1312    0.0000 C   0  0  0  0  0  0  0  0  0  0  0  0
    2.7167   -3.1312    0.0000 C   0  0  0  0  0  0  0  0  0  0  0  0
    7.0468   -3.6312    0.0000 C   0  0  0  0  0  0  0  0  0  0  0  0
    3.5827   -3.6312    0.0000 C   0  0  0  0  0  0  0  0  0  0  0  0
    7.0468   -4.6312    0.0000 C   0  0  0  0  0  0  0  0  0  0  0  0
    7.1038    1.4566    0.0000 C   0  0  0  0  0  0  0  0  0  0  0  0
    8.7788   -4.6312    0.0000 C   0  0  0  0  0  0  0  0  0  0  0  0
    9.6449   -5.1312    0.0000 C   0  0  2  0  0  0  0  0  0  0  0  0
    8.4128    2.4077    0.0000 C   0  0  0  0  0  0  0  0  0  0  0  0
   10.5109   -4.6312    0.0000 C   0  0  0  0  0  0  0  0  0  0  0  0
    6.1808   -5.1312    0.0000 C   0  0  0  0  0  0  0  0  0  0  0  0
   11.3769   -5.1312    0.0000 C   0  0  0  0  0  0  0  0  0  0  0  0
   13.1090   -5.1312    0.0000 C   0  0  0  0  0  0  0  0  0  0  0  0
    4.0570    2.1412    0.0000 H   0  0  0  0  0  0  0  0  0  0  0  0
    2.6916    3.1609    0.0000 H   0  0  0  0  0  0  0  0  0  0  0  0
    1.9336    2.8235    0.0000 H   0  0  0  0  0  0  0  0  0  0  0  0
    1.4984    2.0697    0.0000 H   0  0  0  0  0  0  0  0  0  0  0  0
    1.5851    1.2445    0.0000 H   0  0  0  0  0  0  0  0  0  0  0  0
    2.1675    0.5977    0.0000 H   0  0  0  0  0  0  0  0  0  0  0  0
    2.9791    0.4252    0.0000 H   0  0  0  0  0  0  0  0  0  0  0  0
    7.0387    4.3502    0.0000 H   0  0  0  0  0  0  0  0  0  0  0  0
    4.9856    0.1788    0.0000 H   0  0  0  0  0  0  0  0  0  0  0  0
    8.4305    5.3336    0.0000 H   0  0  0  0  0  0  0  0  0  0  0  0
    8.3437    6.1588    0.0000 H   0  0  0  0  0  0  0  0  0  0  0  0
    7.7613    6.8056    0.0000 H   0  0  0  0  0  0  0  0  0  0  0  0
    6.9497    6.9781    0.0000 H   0  0  0  0  0  0  0  0  0  0  0  0
    6.1546    6.6241    0.0000 H   0  0  0  0  0  0  0  0  0  0  0  0
    5.7398    5.9055    0.0000 H   0  0  0  0  0  0  0  0  0  0  0  0
    3.4237    4.2022    0.0000 H   0  0  0  0  0  0  0  0  0  0  0  0
    5.0476    5.2272    0.0000 H   0  0  0  0  0  0  0  0  0  0  0  0
    4.2680    5.0615    0.0000 H   0  0  0  0  0  0  0  0  0  0  0  0
    3.3706   -0.0485    0.0000 H   0  0  0  0  0  0  0  0  0  0  0  0
    2.9721   -0.7388    0.0000 H   0  0  0  0  0  0  0  0  0  0  0  0
    5.3147   -1.2512    0.0000 H   0  0  0  0  0  0  0  0  0  0  0  0
    7.5837   -0.9412    0.0000 H   0  0  0  0  0  0  0  0  0  0  0  0
    8.1249   -0.7138    0.0000 H   0  0  0  0  0  0  0  0  0  0  0  0
    8.5234   -0.0235    0.0000 H   0  0  0  0  0  0  0  0  0  0  0  0
    6.5098   -1.9412    0.0000 H   0  0  0  0  0  0  0  0  0  0  0  0
    4.9856   -1.8212    0.0000 H   0  0  0  0  0  0  0  0  0  0  0  0
    2.1797   -1.8212    0.0000 H   0  0  0  0  0  0  0  0  0  0  0  0
    9.1946    4.3155    0.0000 H   0  0  0  0  0  0  0  0  0  0  0  0
    7.9128   -3.7512    0.0000 H   0  0  0  0  0  0  0  0  0  0  0  0
    6.8347   -3.0485    0.0000 H   0  0  0  0  0  0  0  0  0  0  0  0
    6.4362   -3.7388    0.0000 H   0  0  0  0  0  0  0  0  0  0  0  0
    4.9856   -3.4412    0.0000 H   0  0  0  0  0  0  0  0  0  0  0  0
    2.1797   -3.4412    0.0000 H   0  0  0  0  0  0  0  0  0  0  0  0
    3.5827   -4.2512    0.0000 H   0  0  0  0  0  0  0  0  0  0  0  0
    9.3158   -3.3212    0.0000 H   0  0  0  0  0  0  0  0  0  0  0  0
    7.2588   -5.2138    0.0000 H   0  0  0  0  0  0  0  0  0  0  0  0
    7.6574   -4.5235    0.0000 H   0  0  0  0  0  0  0  0  0  0  0  0
    9.3115    1.2650    0.0000 H   0  0  0  0  0  0  0  0  0  0  0  0
    6.5141    1.2650    0.0000 H   0  0  0  0  0  0  0  0  0  0  0  0
    9.1079   -5.4412    0.0000 H   0  0  0  0  0  0  0  0  0  0  0  0
    8.7772    2.9093    0.0000 H   0  0  0  0  0  0  0  0  0  0  0  0
   10.9094   -4.1562    0.0000 H   0  0  0  0  0  0  0  0  0  0  0  0
   10.1124   -4.1562    0.0000 H   0  0  0  0  0  0  0  0  0  0  0  0
   10.9784   -5.6061    0.0000 H   0  0  0  0  0  0  0  0  0  0  0  0
   11.7754   -5.6061    0.0000 H   0  0  0  0  0  0  0  0  0  0  0  0
   10.1818   -6.4412    0.0000 H   0  0  0  0  0  0  0  0  0  0  0  0
    9.1079   -6.4412    0.0000 H   0  0  0  0  0  0  0  0  0  0  0  0
    5.6438   -6.4412    0.0000 H   0  0  0  0  0  0  0  0  0  0  0  0
   12.7990   -5.6681    0.0000 H   0  0  0  0  0  0  0  0  0  0  0  0
   13.6459   -5.4412    0.0000 H   0  0  0  0  0  0  0  0  0  0  0  0
   13.4190   -4.5942    0.0000 H   0  0  0  0  0  0  0  0  0  0  0  0
  1 56  1  0  0  0  0
  1 57  1  0  0  0  0
  2 25  2  0  0  0  0
  3 26  2  0  0  0  0
  4 33  2  0  0  0  0
  5 35  1  0  0  0  0
  5 85  1  0  0  0  0
  6 35  2  0  0  0  0
  7 37  2  0  0  0  0
  8 43  2  0  0  0  0
  9 51  2  0  0  0  0
 10 55  1  0  0  0  0
 10105  1  0  0  0  0
 11 55  2  0  0  0  0
 12 21  1  0  0  0  0
 12 24  1  0  0  0  0
 12 25  1  0  0  0  0
 13 27  1  0  0  0  0
 13 31  1  0  0  0  0
 13 33  1  0  0  0  0
 14 26  1  0  0  0  0
 14 32  1  0  0  0  0
 14 73  1  0  0  0  0
 28 15  1  1  0  0  0
 15 37  1  0  0  0  0
 15 78  1  0  0  0  0
 38 16  1  6  0  0  0
 16 43  1  0  0  0  0
 16 82  1  0  0  0  0
 42 17  1  1  0  0  0
 17 51  1  0  0  0  0
 17 92  1  0  0  0  0
 18 44  1  0  0  0  0
 18 53  1  0  0  0  0
 18 95  1  0  0  0  0
 19 50  1  0  0  0  0
 19 53  2  0  0  0  0
 52 20  1  6  0  0  0
 20103  1  0  0  0  0
 20104  1  0  0  0  0
 21 22  1  0  0  0  0
 21 26  1  1  0  0  0
 21 58  1  0  0  0  0
 22 23  1  0  0  0  0
 22 59  1  0  0  0  0
 22 60  1  0  0  0  0
 23 24  1  0  0  0  0
 23 61  1  0  0  0  0
 23 62  1  0  0  0  0
 24 63  1  0  0  0  0
 24 64  1  0  0  0  0
 25 28  1  0  0  0  0
 27 29  1  0  0  0  0
 27 35  1  1  0  0  0
 27 65  1  0  0  0  0
 28 34  1  0  0  0  0
 28 66  1  0  0  0  0
 29 30  1  0  0  0  0
 29 67  1  0  0  0  0
 29 68  1  0  0  0  0
 30 31  1  0  0  0  0
 30 69  1  0  0  0  0
 30 70  1  0  0  0  0
 31 71  1  0  0  0  0
 31 72  1  0  0  0  0
 32 33  1  0  0  0  0
 32 74  1  0  0  0  0
 32 75  1  0  0  0  0
 34 36  1  0  0  0  0
 34 76  1  0  0  0  0
 34 77  1  0  0  0  0
 36 40  2  0  0  0  0
 36 41  1  0  0  0  0
 37 38  1  0  0  0  0
 38 39  1  0  0  0  0
 38 79  1  0  0  0  0
 39 44  1  0  0  0  0
 39 80  1  0  0  0  0
 39 81  1  0  0  0  0
 40 45  1  0  0  0  0
 40 83  1  0  0  0  0
 41 46  2  0  0  0  0
 41 84  1  0  0  0  0
 42 43  1  0  0  0  0
 42 47  1  0  0  0  0
 42 86  1  0  0  0  0
 44 50  2  0  0  0  0
 45 48  2  0  0  0  0
 45 89  1  0  0  0  0
 46 48  1  0  0  0  0
 46 90  1  0  0  0  0
 47 49  1  0  0  0  0
 47 87  1  0  0  0  0
 47 88  1  0  0  0  0
 48 91  1  0  0  0  0
 49 55  1  0  0  0  0
 49 93  1  0  0  0  0
 49 94  1  0  0  0  0
 50 96  1  0  0  0  0
 51 52  1  0  0  0  0
 52 54  1  0  0  0  0
 52 97  1  0  0  0  0
 53 98  1  0  0  0  0
 54 56  1  0  0  0  0
 54 99  1  0  0  0  0
 54100  1  0  0  0  0
 56101  1  0  0  0  0
 56102  1  0  0  0  0
 57106  1  0  0  0  0
 57107  1  0  0  0  0
 57108  1  0  0  0  0
M  END
> <PUBCHEM_COMPOUND_CID>
9811102

> <PUBCHEM_COMPOUND_CANONICALIZED>
1

> <PUBCHEM_CACTVS_COMPLEXITY>
1450

> <PUBCHEM_CACTVS_HBOND_ACCEPTOR>
13

> <PUBCHEM_CACTVS_HBOND_DONOR>
8

> <PUBCHEM_CACTVS_ROTATABLE_BOND>
21

> <PUBCHEM_CACTVS_SUBSKEYS>
AAADcfB//ABAAAAAAAAAAAAAAAAAAWLFgAAwAAAAAAAAAAABwAAAHgQQCAAADCjF3gS/mJfJkgioAzX3fAACgC2xErAJ2YG4cIiKaDLg2TGUYAAslgLYyCe8n4KOAAAAAAAAAAAAAAAAAAAAAAAAAAAAAA==

> <PUBCHEM_IUPAC_OPENEYE_NAME>
(2S)-1-[2-[[(2S)-1-[(2S)-2-[[(2S)-2-[[(2S)-2-[[(2S)-2-amino-4-methylsulfanyl-butanoyl]amino]-4-carboxy-butanoyl]amino]-3-(1H-imidazol-5-yl)propanoyl]amino]-3-phenyl-propanoyl]pyrrolidine-2-carbonyl]amino]acetyl]pyrrolidine-2-carboxylic acid

> <PUBCHEM_IUPAC_CAS_NAME>
(2S)-1-[2-[[[(2S)-1-[(2S)-2-[[(2S)-2-[[(2S)-2-[[(2S)-2-amino-4-(methylthio)-1-oxobutyl]amino]-4-carboxy-1-oxobutyl]amino]-3-(1H-imidazol-5-yl)-1-oxopropyl]amino]-1-oxo-3-phenylpropyl]-2-pyrrolidinyl]-oxomethyl]amino]-1-oxoethyl]-2-pyrrolidinecarboxylic acid

> <PUBCHEM_IUPAC_NAME_MARKUP>
(2<I>S</I>)-1-[2-[[(2<I>S</I>)-1-[(2<I>S</I>)-2-[[(2<I>S</I>)-2-[[(2<I>S</I>)-2-[[(2<I>S</I>)-2-amino-4-methylsulfanylbutanoyl]amino]-4-carboxybutanoyl]amino]-3-(1<I>H</I>-imidazol-5-yl)propanoyl]amino]-3-phenylpropanoyl]pyrrolidine-2-carbonyl]amino]acetyl]pyrrolidine-2-carboxylic acid

> <PUBCHEM_IUPAC_NAME>
(2S)-1-[2-[[(2S)-1-[(2S)-2-[[(2S)-2-[[(2S)-2-[[(2S)-2-amino-4-methylsulfanylbutanoyl]amino]-4-carboxybutanoyl]amino]-3-(1H-imidazol-5-yl)propanoyl]amino]-3-phenylpropanoyl]pyrrolidine-2-carbonyl]amino]acetyl]pyrrolidine-2-carboxylic acid

> <PUBCHEM_IUPAC_SYSTEMATIC_NAME>
(2S)-1-[2-[[(2S)-1-[(2S)-2-[[(2S)-2-[[(2S)-2-[[(2S)-2-azanyl-4-methylsulfanyl-butanoyl]amino]-5-oxidanyl-5-oxidanylidene-pentanoyl]amino]-3-(1H-imidazol-5-yl)propanoyl]amino]-3-phenyl-propanoyl]pyrrolidin-2-yl]carbonylamino]ethanoyl]pyrrolidine-2-carboxylic acid

> <PUBCHEM_IUPAC_TRADITIONAL_NAME>
(2S)-1-[2-[[(2S)-1-[(2S)-2-[[(2S)-2-[[(2S)-2-[[(2S)-2-amino-4-(methylthio)butanoyl]amino]-4-carboxy-butanoyl]amino]-3-(1H-imidazol-5-yl)propanoyl]amino]-3-phenyl-propanoyl]prolyl]amino]acetyl]proline

> <PUBCHEM_IUPAC_INCHI>
InChI=1S/C37H51N9O10S/c1-57-16-13-24(38)32(50)42-25(11-12-31(48)49)33(51)43-26(18-23-19-39-21-41-23)34(52)44-27(17-22-7-3-2-4-8-22)36(54)46-15-5-9-28(46)35(53)40-20-30(47)45-14-6-10-29(45)37(55)56/h2-4,7-8,19,21,24-29H,5-6,9-18,20,38H2,1H3,(H,39,41)(H,40,53)(H,42,50)(H,43,51)(H,44,52)(H,48,49)(H,55,56)/t24-,25-,26-,27-,28-,29-/m0/s1

> <PUBCHEM_IUPAC_INCHIKEY>
AFEHBIGDWIGTEH-AQRCPPRCSA-N

> <PUBCHEM_XLOGP3_AA>
-2.8

> <PUBCHEM_EXACT_MASS>
813.34796003

> <PUBCHEM_MOLECULAR_FORMULA>
C37H51N9O10S

> <PUBCHEM_MOLECULAR_WEIGHT>
813.9

> <PUBCHEM_SMILES>
CSCC[C@@H](C(=O)N[C@@H](CCC(=O)O)C(=O)N[C@@H](CC1=CN=CN1)C(=O)N[C@@H](CC2=CC=CC=C2)C(=O)N3CCC[C@H]3C(=O)NCC(=O)N4CCC[C@H]4C(=O)O)N

> <PUBCHEM_CONNECTIVITY_SMILES>
CSCCC(C(=O)NC(CCC(=O)O)C(=O)NC(CC1=CN=CN1)C(=O)NC(CC2=CC=CC=C2)C(=O)N3CCCC3C(=O)NCC(=O)N4CCCC4C(=O)O)N

> <PUBCHEM_CACTVS_TPSA>
312

> <PUBCHEM_MONOISOTOPIC_WEIGHT>
813.34796003

> <PUBCHEM_TOTAL_CHARGE>
0

> <PUBCHEM_HEAVY_ATOM_COUNT>
57

> <PUBCHEM_ATOM_DEF_STEREO_COUNT>
6

> <PUBCHEM_ATOM_UDEF_STEREO_COUNT>
0

> <PUBCHEM_BOND_DEF_STEREO_COUNT>
0

> <PUBCHEM_BOND_UDEF_STEREO_COUNT>
0

> <PUBCHEM_ISOTOPIC_ATOM_COUNT>
0

> <PUBCHEM_COMPONENT_COUNT>
1

> <PUBCHEM_CACTVS_TAUTO_COUNT>
-1

> <PUBCHEM_COORDINATE_TYPE>
1
5
255

> <PUBCHEM_BONDANNOTATIONS>
28  15  5
38  16  6
42  17  5
18  44  8
18  53  8
19  50  8
19  53  8
52  20  6
21  26  5
27  35  5
36  40  8
36  41  8
40  45  8
41  46  8
44  50  8
45  48  8
46  48  8

$$$$
