16132413
  -OEChem-12202521142D

482484  0     1  0  0  0  0  0999 V2000
    7.4934   19.1210    0.0000 S   0  0  0  0  0  0  0  0  0  0  0  0
   12.1336    9.7338    0.0000 O   0  0  0  0  0  0  0  0  0  0  0  0
   10.6661   12.6453    0.0000 O   0  0  0  0  0  0  0  0  0  0  0  0
   11.2676    6.2338    0.0000 O   0  0  0  0  0  0  0  0  0  0  0  0
   14.7317    5.2338    0.0000 O   0  0  0  0  0  0  0  0  0  0  0  0
    7.3696   11.1847    0.0000 O   0  0  0  0  0  0  0  0  0  0  0  0
   21.6599  -11.7662    0.0000 O   0  0  0  0  0  0  0  0  0  0  0  0
    6.4673   16.3019    0.0000 O   0  0  0  0  0  0  0  0  0  0  0  0
   25.1240  -12.7662    0.0000 O   0  0  0  0  0  0  0  0  0  0  0  0
    4.4564   13.3092    0.0000 O   0  0  0  0  0  0  0  0  0  0  0  0
   24.2580  -16.2662    0.0000 O   0  0  0  0  0  0  0  0  0  0  0  0
   22.5259   -8.2662    0.0000 O   0  0  0  0  0  0  0  0  0  0  0  0
   13.8657    1.7338    0.0000 O   0  0  0  0  0  0  0  0  0  0  0  0
    9.7225   15.1171    0.0000 O   0  0  0  0  0  0  0  0  0  0  0  0
    4.4152   10.6638    0.0000 O   0  0  0  0  0  0  0  0  0  0  0  0
    3.5541   18.4264    0.0000 O   0  0  0  0  0  0  0  0  0  0  0  0
   27.7221  -17.2662    0.0000 O   0  0  0  0  0  0  0  0  0  0  0  0
   36.3823  -22.2662    0.0000 O   0  0  0  0  0  0  0  0  0  0  0  0
    4.1144   12.3695    0.0000 O   0  0  0  0  0  0  0  0  0  0  0  0
   16.4637   -2.7662    0.0000 O   0  0  0  0  0  0  0  0  0  0  0  0
   19.9278   -3.7662    0.0000 O   0  0  0  0  0  0  0  0  0  0  0  0
   17.3298    0.7338    0.0000 O   0  0  0  0  0  0  0  0  0  0  0  0
   38.9804  -24.7662    0.0000 O   0  0  0  0  0  0  0  0  0  0  0  0
   19.0618   -7.2662    0.0000 O   0  0  0  0  0  0  0  0  0  0  0  0
   35.5163  -21.7662    0.0000 O   0  0  0  0  0  0  0  0  0  0  0  0
   14.7317   -0.7662    0.0000 O   0  0  0  0  0  0  0  0  0  0  0  0
    2.6106   20.8982    0.0000 O   0  0  0  0  0  0  0  0  0  0  0  0
   35.5163  -20.7662    0.0000 O   0  0  0  0  0  0  0  0  0  0  0  0
   28.5881  -17.7662    0.0000 O   0  0  0  0  0  0  0  0  0  0  0  0
    5.5650   21.4191    0.0000 O   0  0  0  0  0  0  0  0  0  0  0  0
   32.0522  -20.7662    0.0000 O   0  0  0  0  0  0  0  0  0  0  0  0
   30.3201  -20.7662    0.0000 O   0  0  0  0  0  0  0  0  0  0  0  0
   31.1862  -20.2662    0.0000 O   0  0  0  0  0  0  0  0  0  0  0  0
   41.5785  -22.2662    0.0000 O   0  0  0  0  0  0  0  0  0  0  0  0
   16.4637   -6.7662    0.0000 O   0  0  0  0  0  0  0  0  0  0  0  0
   25.9900  -23.2662    0.0000 O   0  0  0  0  0  0  0  0  0  0  0  0
    2.6518   23.5436    0.0000 O   0  0  0  0  0  0  0  0  0  0  0  0
   33.7842  -17.7662    0.0000 O   0  0  0  0  0  0  0  0  0  0  0  0
   42.4445  -21.7662    0.0000 O   0  0  0  0  0  0  0  0  0  0  0  0
   43.3105  -26.2662    0.0000 O   0  0  0  0  0  0  0  0  0  0  0  0
   44.1766  -24.7662    0.0000 O   0  0  0  0  0  0  0  0  0  0  0  0
   45.9086  -20.7662    0.0000 O   0  0  0  0  0  0  0  0  0  0  0  0
   45.9086  -14.7662    0.0000 O   0  0  0  0  0  0  0  0  0  0  0  0
   10.6248    9.9999    0.0000 N   0  0  0  0  0  0  0  0  0  0  0  0
   12.1336    7.7338    0.0000 N   0  0  0  0  0  0  0  0  0  0  0  0
    9.3392   11.5320    0.0000 N   0  0  0  0  0  0  0  0  0  0  0  0
   12.9996    5.2338    0.0000 N   0  0  0  0  0  0  0  0  0  0  0  0
    5.7833   14.4225    0.0000 N   0  0  0  0  0  0  0  0  0  0  0  0
   23.3919  -12.7662    0.0000 N   0  0  0  0  0  0  0  0  0  0  0  0
    7.0688   12.8904    0.0000 N   0  0  0  0  0  0  0  0  0  0  0  0
   22.5259  -10.2662    0.0000 N   0  0  0  0  0  0  0  0  0  0  0  0
   25.1240  -14.7662    0.0000 N   0  0  0  0  0  0  0  0  0  0  0  0
   14.7317    3.2338    0.0000 N   0  0  0  0  0  0  0  0  0  0  0  0
    4.8397   16.8943    0.0000 N   0  0  0  0  0  0  0  0  0  0  0  0
   25.9900  -17.2662    0.0000 N   0  0  0  0  0  0  0  0  0  0  0  0
   20.7939   -8.2662    0.0000 N   0  0  0  0  0  0  0  0  0  0  0  0
   15.5977    9.7338    0.0000 N   0  0  0  0  0  0  0  0  0  0  0  0
   38.1144  -23.2662    0.0000 N   0  0  0  0  0  0  0  0  0  0  0  0
   15.5977    0.7338    0.0000 N   0  0  0  0  0  0  0  0  0  0  0  0
   35.5163  -23.7662    0.0000 N   0  0  0  0  0  0  0  0  0  0  0  0
    4.8810   19.5397    0.0000 N   0  0  0  0  0  0  0  0  0  0  0  0
   10.4016    3.7338    0.0000 N   0  0  0  0  0  0  0  0  0  0  0  0
   18.1958   -3.7662    0.0000 N   0  0  0  0  0  0  0  0  0  0  0  0
   27.7221  -19.2662    0.0000 N   0  0  0  0  0  0  0  0  0  0  0  0
   17.3298   -1.2662    0.0000 N   0  0  0  0  0  0  0  0  0  0  0  0
   19.9278   -5.7662    0.0000 N   0  0  0  0  0  0  0  0  0  0  0  0
    8.0949   15.7095    0.0000 N   0  0  0  0  0  0  0  0  0  0  0  0
   20.7939  -13.2662    0.0000 N   0  0  0  0  0  0  0  0  0  0  0  0
   27.7221  -13.2662    0.0000 N   0  0  0  0  0  0  0  0  0  0  0  0
   33.7842  -21.7662    0.0000 N   0  0  0  0  0  0  0  0  0  0  0  0
   40.7125  -23.7662    0.0000 N   0  0  0  0  0  0  0  0  0  0  0  0
    3.9374   22.0115    0.0000 N   0  0  0  0  0  0  0  0  0  0  0  0
   30.3201  -18.7662    0.0000 N   0  0  0  0  0  0  0  0  0  0  0  0
   32.9182  -19.2662    0.0000 N   0  0  0  0  0  0  0  0  0  0  0  0
    8.6695    3.7338    0.0000 N   0  0  0  0  0  0  0  0  0  0  0  0
    9.5355    2.2338    0.0000 N   0  0  0  0  0  0  0  0  0  0  0  0
   43.3105  -23.2662    0.0000 N   0  0  0  0  0  0  0  0  0  0  0  0
   28.5881  -11.7662    0.0000 N   0  0  0  0  0  0  0  0  0  0  0  0
   15.5977   -5.2662    0.0000 N   0  0  0  0  0  0  0  0  0  0  0  0
   29.4541  -13.2662    0.0000 N   0  0  0  0  0  0  0  0  0  0  0  0
    3.9787   24.6569    0.0000 N   0  0  0  0  0  0  0  0  0  0  0  0
    6.9331   25.1779    0.0000 N   0  0  0  0  0  0  0  0  0  0  0  0
   32.9182  -16.2662    0.0000 N   0  0  0  0  0  0  0  0  0  0  0  0
   44.1766  -20.7662    0.0000 N   0  0  0  0  0  0  0  0  0  0  0  0
    8.2599   26.2912    0.0000 N   0  0  0  0  0  0  0  0  0  0  0  0
    8.5607   24.5855    0.0000 N   0  0  0  0  0  0  0  0  0  0  0  0
   44.1766  -18.7662    0.0000 N   0  0  0  0  0  0  0  0  0  0  0  0
   11.2676    8.2338    0.0000 C   0  0  1  0  0  0  0  0  0  0  0  0
   10.9668   10.9396    0.0000 C   0  0  1  0  0  0  0  0  0  0  0  0
   10.6248    7.4678    0.0000 C   0  0  0  0  0  0  0  0  0  0  0  0
   11.9516   11.1132    0.0000 C   0  0  0  0  0  0  0  0  0  0  0  0
    9.6400    7.6415    0.0000 C   0  0  0  0  0  0  0  0  0  0  0  0
   12.2936   12.0529    0.0000 C   0  0  0  0  0  0  0  0  0  0  0  0
   12.9996    6.2338    0.0000 C   0  0  1  0  0  0  0  0  0  0  0  0
   11.2676    9.2338    0.0000 C   0  0  0  0  0  0  0  0  0  0  0  0
   13.8657    6.7338    0.0000 C   0  0  0  0  0  0  0  0  0  0  0  0
   10.3240   11.7056    0.0000 C   0  0  0  0  0  0  0  0  0  0  0  0
   12.1336    6.7338    0.0000 C   0  0  0  0  0  0  0  0  0  0  0  0
    8.6964   12.2980    0.0000 C   0  0  1  0  0  0  0  0  0  0  0  0
    4.1557   15.0149    0.0000 C   0  0  2  0  0  0  0  0  0  0  0  0
    5.1405   15.1885    0.0000 C   0  0  1  0  0  0  0  0  0  0  0  0
   13.8657    7.7338    0.0000 C   0  0  0  0  0  0  0  0  0  0  0  0
    8.9972    6.8755    0.0000 C   0  0  0  0  0  0  0  0  0  0  0  0
    9.2980    8.5811    0.0000 C   0  0  0  0  0  0  0  0  0  0  0  0
   13.2785   12.2266    0.0000 C   0  0  0  0  0  0  0  0  0  0  0  0
   11.6509   12.8190    0.0000 C   0  0  0  0  0  0  0  0  0  0  0  0
   23.3919  -11.7662    0.0000 C   0  0  1  0  0  0  0  0  0  0  0  0
    9.0385   13.2377    0.0000 C   0  0  0  0  0  0  0  0  0  0  0  0
   24.2580  -11.2662    0.0000 C   0  0  0  0  0  0  0  0  0  0  0  0
   13.8657    3.7338    0.0000 C   0  0  2  0  0  0  0  0  0  0  0  0
   24.2580  -14.2662    0.0000 C   0  0  1  0  0  0  0  0  0  0  0  0
   14.7317    8.2338    0.0000 C   0  0  0  0  0  0  0  0  0  0  0  0
    3.5129   15.7809    0.0000 C   0  0  0  0  0  0  0  0  0  0  0  0
    6.0840   12.7168    0.0000 C   0  0  2  0  0  0  0  0  0  0  0  0
   21.6599   -9.7662    0.0000 C   0  0  1  0  0  0  0  0  0  0  0  0
   13.8657    4.7338    0.0000 C   0  0  0  0  0  0  0  0  0  0  0  0
    7.7116   12.1244    0.0000 C   0  0  0  0  0  0  0  0  0  0  0  0
   20.7939  -10.2662    0.0000 C   0  0  0  0  0  0  0  0  0  0  0  0
   23.3919  -14.7662    0.0000 C   0  0  0  0  0  0  0  0  0  0  0  0
   12.9996    3.2338    0.0000 C   0  0  0  0  0  0  0  0  0  0  0  0
   19.7939  -10.2662    0.0000 C   0  0  0  0  0  0  0  0  0  0  0  0
   22.5259  -11.2662    0.0000 C   0  0  0  0  0  0  0  0  0  0  0  0
    3.8137   14.0752    0.0000 C   0  0  0  0  0  0  0  0  0  0  0  0
    5.4825   16.1282    0.0000 C   0  0  0  0  0  0  0  0  0  0  0  0
   24.2580  -13.2662    0.0000 C   0  0  0  0  0  0  0  0  0  0  0  0
    5.4413   13.4828    0.0000 C   0  0  0  0  0  0  0  0  0  0  0  0
   22.5259  -14.2662    0.0000 C   0  0  0  0  0  0  0  0  0  0  0  0
    8.3957   14.0038    0.0000 C   0  0  0  0  0  0  0  0  0  0  0  0
   25.9900  -16.2662    0.0000 C   0  0  1  0  0  0  0  0  0  0  0  0
   12.1336    3.7338    0.0000 C   0  0  0  0  0  0  0  0  0  0  0  0
   14.7317    9.2338    0.0000 C   0  0  0  0  0  0  0  0  0  0  0  0
   24.2580  -10.2662    0.0000 C   0  0  0  0  0  0  0  0  0  0  0  0
   25.1240  -11.7662    0.0000 C   0  0  0  0  0  0  0  0  0  0  0  0
    5.7420   11.7771    0.0000 C   0  0  0  0  0  0  0  0  0  0  0  0
    5.1817   17.8340    0.0000 C   0  0  1  0  0  0  0  0  0  0  0  0
    2.5281   15.6073    0.0000 C   0  0  0  0  0  0  0  0  0  0  0  0
   26.8560  -15.7662    0.0000 C   0  0  0  0  0  0  0  0  0  0  0  0
   25.1240  -15.7662    0.0000 C   0  0  0  0  0  0  0  0  0  0  0  0
   21.6599  -14.7662    0.0000 C   0  0  0  0  0  0  0  0  0  0  0  0
   21.6599   -8.7662    0.0000 C   0  0  0  0  0  0  0  0  0  0  0  0
   37.2483  -24.7662    0.0000 C   0  0  2  0  0  0  0  0  0  0  0  0
   37.2483  -23.7662    0.0000 C   0  0  1  0  0  0  0  0  0  0  0  0
   19.2938  -11.1321    0.0000 C   0  0  0  0  0  0  0  0  0  0  0  0
   19.2939   -9.4001    0.0000 C   0  0  0  0  0  0  0  0  0  0  0  0
    6.1665   18.0076    0.0000 C   0  0  0  0  0  0  0  0  0  0  0  0
   11.2676    3.2338    0.0000 C   0  0  0  0  0  0  0  0  0  0  0  0
   26.8560  -14.7662    0.0000 C   0  0  0  0  0  0  0  0  0  0  0  0
   14.7317    2.2338    0.0000 C   0  0  0  0  0  0  0  0  0  0  0  0
   15.5977    1.7338    0.0000 C   0  0  2  0  0  0  0  0  0  0  0  0
   38.1144  -25.2662    0.0000 C   0  0  0  0  0  0  0  0  0  0  0  0
    8.7377   14.9434    0.0000 C   0  0  0  0  0  0  0  0  0  0  0  0
   20.7939  -14.2662    0.0000 C   0  0  0  0  0  0  0  0  0  0  0  0
    4.5389   18.6000    0.0000 C   0  0  0  0  0  0  0  0  0  0  0  0
   18.1958   -2.7662    0.0000 C   0  0  1  0  0  0  0  0  0  0  0  0
   26.8560  -18.7662    0.0000 C   0  0  2  0  0  0  0  0  0  0  0  0
   19.0618   -2.2662    0.0000 C   0  0  0  0  0  0  0  0  0  0  0  0
   26.8560  -17.7662    0.0000 C   0  0  0  0  0  0  0  0  0  0  0  0
   36.3823  -23.2662    0.0000 C   0  0  0  0  0  0  0  0  0  0  0  0
    4.7572   11.6035    0.0000 C   0  0  0  0  0  0  0  0  0  0  0  0
   36.3823  -25.2662    0.0000 C   0  0  0  0  0  0  0  0  0  0  0  0
   19.5618   -1.4001    0.0000 C   0  0  0  0  0  0  0  0  0  0  0  0
   27.7221  -14.2662    0.0000 C   0  0  0  0  0  0  0  0  0  0  0  0
    6.5086   18.9473    0.0000 C   0  0  0  0  0  0  0  0  0  0  0  0
   34.6503  -23.2662    0.0000 C   0  0  1  0  0  0  0  0  0  0  0  0
   19.0618   -5.2662    0.0000 C   0  0  2  0  0  0  0  0  0  0  0  0
   20.7939   -7.2662    0.0000 C   0  0  0  0  0  0  0  0  0  0  0  0
   25.9900  -19.2662    0.0000 C   0  0  0  0  0  0  0  0  0  0  0  0
   16.4637   -0.7662    0.0000 C   0  0  2  0  0  0  0  0  0  0  0  0
   16.4637    2.2338    0.0000 C   0  0  0  0  0  0  0  0  0  0  0  0
    4.2382   20.3058    0.0000 C   0  0  1  0  0  0  0  0  0  0  0  0
   17.3298   -2.2662    0.0000 C   0  0  0  0  0  0  0  0  0  0  0  0
   38.1144  -26.2662    0.0000 C   0  0  0  0  0  0  0  0  0  0  0  0
   33.7842  -23.7662    0.0000 C   0  0  0  0  0  0  0  0  0  0  0  0
   19.0618   -4.2662    0.0000 C   0  0  0  0  0  0  0  0  0  0  0  0
   16.4637    0.2338    0.0000 C   0  0  0  0  0  0  0  0  0  0  0  0
   18.1958   -5.7662    0.0000 C   0  0  0  0  0  0  0  0  0  0  0  0
   38.9804  -23.7662    0.0000 C   0  0  0  0  0  0  0  0  0  0  0  0
   19.9278   -6.7662    0.0000 C   0  0  0  0  0  0  0  0  0  0  0  0
   34.6503  -22.2662    0.0000 C   0  0  0  0  0  0  0  0  0  0  0  0
   33.7842  -20.7662    0.0000 C   0  0  1  0  0  0  0  0  0  0  0  0
   39.8464  -23.2662    0.0000 C   0  0  2  0  0  0  0  0  0  0  0  0
   20.5618   -1.4001    0.0000 C   0  0  0  0  0  0  0  0  0  0  0  0
   19.0618   -0.5341    0.0000 C   0  0  0  0  0  0  0  0  0  0  0  0
   25.9900  -20.2662    0.0000 C   0  0  0  0  0  0  0  0  0  0  0  0
   29.4541  -19.2662    0.0000 C   0  0  2  0  0  0  0  0  0  0  0  0
   15.5977   -1.2662    0.0000 C   0  0  0  0  0  0  0  0  0  0  0  0
   28.5881  -18.7662    0.0000 C   0  0  0  0  0  0  0  0  0  0  0  0
    3.2534   20.1321    0.0000 C   0  0  0  0  0  0  0  0  0  0  0  0
    4.5802   21.2455    0.0000 C   0  0  0  0  0  0  0  0  0  0  0  0
   17.3298   -5.2662    0.0000 C   0  0  0  0  0  0  0  0  0  0  0  0
   34.6503  -20.2662    0.0000 C   0  0  1  0  0  0  0  0  0  0  0  0
   33.7842  -24.7662    0.0000 C   0  0  0  0  0  0  0  0  0  0  0  0
   32.0522  -18.7662    0.0000 C   0  0  2  0  0  0  0  0  0  0  0  0
    9.5355    3.2338    0.0000 C   0  0  0  0  0  0  0  0  0  0  0  0
   32.9182  -20.2662    0.0000 C   0  0  0  0  0  0  0  0  0  0  0  0
    4.2794   22.9512    0.0000 C   0  0  1  0  0  0  0  0  0  0  0  0
   39.8464  -22.2662    0.0000 C   0  0  0  0  0  0  0  0  0  0  0  0
   31.1862  -19.2662    0.0000 C   0  0  0  0  0  0  0  0  0  0  0  0
   29.4541  -20.2662    0.0000 C   0  0  0  0  0  0  0  0  0  0  0  0
    5.2642   23.1248    0.0000 C   0  0  0  0  0  0  0  0  0  0  0  0
   26.8560  -20.7662    0.0000 C   0  0  0  0  0  0  0  0  0  0  0  0
   25.1240  -20.7662    0.0000 C   0  0  0  0  0  0  0  0  0  0  0  0
   32.0522  -17.7662    0.0000 C   0  0  0  0  0  0  0  0  0  0  0  0
   28.5881  -12.7662    0.0000 C   0  0  0  0  0  0  0  0  0  0  0  0
   34.6503  -19.2662    0.0000 C   0  0  0  0  0  0  0  0  0  0  0  0
   32.9182  -25.2662    0.0000 C   0  0  0  0  0  0  0  0  0  0  0  0
   34.6503  -25.2662    0.0000 C   0  0  0  0  0  0  0  0  0  0  0  0
   41.5785  -23.2662    0.0000 C   0  0  0  0  0  0  0  0  0  0  0  0
    7.8354   20.0607    0.0000 C   0  0  0  0  0  0  0  0  0  0  0  0
   42.4445  -23.7662    0.0000 C   0  0  2  0  0  0  0  0  0  0  0  0
    5.6063   24.0645    0.0000 C   0  0  0  0  0  0  0  0  0  0  0  0
   16.4637   -5.7662    0.0000 C   0  0  0  0  0  0  0  0  0  0  0  0
   26.8560  -21.7662    0.0000 C   0  0  0  0  0  0  0  0  0  0  0  0
   25.1240  -21.7662    0.0000 C   0  0  0  0  0  0  0  0  0  0  0  0
    3.6366   23.7172    0.0000 C   0  0  0  0  0  0  0  0  0  0  0  0
   25.9900  -22.2662    0.0000 C   0  0  0  0  0  0  0  0  0  0  0  0
   32.9182  -26.2662    0.0000 C   0  0  0  0  0  0  0  0  0  0  0  0
   34.6503  -26.2662    0.0000 C   0  0  0  0  0  0  0  0  0  0  0  0
   42.4445  -24.7662    0.0000 C   0  0  0  0  0  0  0  0  0  0  0  0
    6.5911   24.2382    0.0000 C   0  0  0  0  0  0  0  0  0  0  0  0
   32.9182  -17.2662    0.0000 C   0  0  0  0  0  0  0  0  0  0  0  0
   33.7842  -26.7662    0.0000 C   0  0  0  0  0  0  0  0  0  0  0  0
   43.3105  -22.2662    0.0000 C   0  0  0  0  0  0  0  0  0  0  0  0
   44.1766  -21.7662    0.0000 C   0  0  2  0  0  0  0  0  0  0  0  0
   43.3105  -25.2662    0.0000 C   0  0  0  0  0  0  0  0  0  0  0  0
   45.0426  -22.2662    0.0000 C   0  0  0  0  0  0  0  0  0  0  0  0
    7.9179   25.3515    0.0000 C   0  0  0  0  0  0  0  0  0  0  0  0
   45.0426  -20.2662    0.0000 C   0  0  0  0  0  0  0  0  0  0  0  0
   45.0426  -19.2662    0.0000 C   0  0  2  0  0  0  0  0  0  0  0  0
   45.9086  -18.7662    0.0000 C   0  0  0  0  0  0  0  0  0  0  0  0
   45.9086  -17.7662    0.0000 C   0  0  0  0  0  0  0  0  0  0  0  0
   45.0426  -17.2662    0.0000 C   0  0  0  0  0  0  0  0  0  0  0  0
   46.7746  -17.2662    0.0000 C   0  0  0  0  0  0  0  0  0  0  0  0
   45.0426  -16.2662    0.0000 C   0  0  0  0  0  0  0  0  0  0  0  0
   46.7746  -16.2662    0.0000 C   0  0  0  0  0  0  0  0  0  0  0  0
   45.9086  -15.7662    0.0000 C   0  0  0  0  0  0  0  0  0  0  0  0
   11.8045    8.5438    0.0000 H   0  0  0  0  0  0  0  0  0  0  0  0
   10.3562   10.8319    0.0000 H   0  0  0  0  0  0  0  0  0  0  0  0
   10.4127    6.8852    0.0000 H   0  0  0  0  0  0  0  0  0  0  0  0
   11.1617    7.1578    0.0000 H   0  0  0  0  0  0  0  0  0  0  0  0
   11.9516   10.4932    0.0000 H   0  0  0  0  0  0  0  0  0  0  0  0
   12.5622   11.0056    0.0000 H   0  0  0  0  0  0  0  0  0  0  0  0
   10.0385    8.1165    0.0000 H   0  0  0  0  0  0  0  0  0  0  0  0
   12.6922   11.5780    0.0000 H   0  0  0  0  0  0  0  0  0  0  0  0
   12.4627    5.9238    0.0000 H   0  0  0  0  0  0  0  0  0  0  0  0
   10.0142    9.8922    0.0000 H   0  0  0  0  0  0  0  0  0  0  0  0
   12.6705    8.0438    0.0000 H   0  0  0  0  0  0  0  0  0  0  0  0
   14.0777    6.1512    0.0000 H   0  0  0  0  0  0  0  0  0  0  0  0
   14.4762    6.8415    0.0000 H   0  0  0  0  0  0  0  0  0  0  0  0
    8.4844   11.7154    0.0000 H   0  0  0  0  0  0  0  0  0  0  0  0
    3.5451   14.9072    0.0000 H   0  0  0  0  0  0  0  0  0  0  0  0
    5.7511   15.2962    0.0000 H   0  0  0  0  0  0  0  0  0  0  0  0
   13.6536    8.3165    0.0000 H   0  0  0  0  0  0  0  0  0  0  0  0
   13.2551    7.6262    0.0000 H   0  0  0  0  0  0  0  0  0  0  0  0
    8.5222    7.2740    0.0000 H   0  0  0  0  0  0  0  0  0  0  0  0
    8.5986    6.4005    0.0000 H   0  0  0  0  0  0  0  0  0  0  0  0
    9.4721    6.4770    0.0000 H   0  0  0  0  0  0  0  0  0  0  0  0
    9.8806    8.7932    0.0000 H   0  0  0  0  0  0  0  0  0  0  0  0
    9.0859    9.1638    0.0000 H   0  0  0  0  0  0  0  0  0  0  0  0
    8.7154    8.3691    0.0000 H   0  0  0  0  0  0  0  0  0  0  0  0
    9.1272   10.9494    0.0000 H   0  0  0  0  0  0  0  0  0  0  0  0
   13.3861   11.6160    0.0000 H   0  0  0  0  0  0  0  0  0  0  0  0
   13.8890   12.3342    0.0000 H   0  0  0  0  0  0  0  0  0  0  0  0
   13.1708   12.8371    0.0000 H   0  0  0  0  0  0  0  0  0  0  0  0
   12.1258   13.2175    0.0000 H   0  0  0  0  0  0  0  0  0  0  0  0
   11.2523   13.2939    0.0000 H   0  0  0  0  0  0  0  0  0  0  0  0
   11.1759   12.4204    0.0000 H   0  0  0  0  0  0  0  0  0  0  0  0
   23.9289  -12.0762    0.0000 H   0  0  0  0  0  0  0  0  0  0  0  0
   12.4627    4.9238    0.0000 H   0  0  0  0  0  0  0  0  0  0  0  0
    9.5754   12.9277    0.0000 H   0  0  0  0  0  0  0  0  0  0  0  0
    9.4370   13.7127    0.0000 H   0  0  0  0  0  0  0  0  0  0  0  0
   24.7949  -10.9562    0.0000 H   0  0  0  0  0  0  0  0  0  0  0  0
   14.4026    4.0438    0.0000 H   0  0  0  0  0  0  0  0  0  0  0  0
   24.7949  -13.9562    0.0000 H   0  0  0  0  0  0  0  0  0  0  0  0
   14.9437    7.6512    0.0000 H   0  0  0  0  0  0  0  0  0  0  0  0
   15.3423    8.3415    0.0000 H   0  0  0  0  0  0  0  0  0  0  0  0
    4.0498   16.0909    0.0000 H   0  0  0  0  0  0  0  0  0  0  0  0
    3.3008   16.3636    0.0000 H   0  0  0  0  0  0  0  0  0  0  0  0
    6.4826   12.2418    0.0000 H   0  0  0  0  0  0  0  0  0  0  0  0
   22.1968   -9.4562    0.0000 H   0  0  0  0  0  0  0  0  0  0  0  0
   20.5818  -10.8488    0.0000 H   0  0  0  0  0  0  0  0  0  0  0  0
   20.6334   -9.6673    0.0000 H   0  0  0  0  0  0  0  0  0  0  0  0
   22.9934  -15.2411    0.0000 H   0  0  0  0  0  0  0  0  0  0  0  0
   23.7905  -15.2411    0.0000 H   0  0  0  0  0  0  0  0  0  0  0  0
   12.6011    2.7589    0.0000 H   0  0  0  0  0  0  0  0  0  0  0  0
   13.3982    2.7589    0.0000 H   0  0  0  0  0  0  0  0  0  0  0  0
    6.3939   14.5302    0.0000 H   0  0  0  0  0  0  0  0  0  0  0  0
   22.8550  -13.0762    0.0000 H   0  0  0  0  0  0  0  0  0  0  0  0
   20.1038  -10.8031    0.0000 H   0  0  0  0  0  0  0  0  0  0  0  0
    3.2310   14.2873    0.0000 H   0  0  0  0  0  0  0  0  0  0  0  0
    3.6016   13.4926    0.0000 H   0  0  0  0  0  0  0  0  0  0  0  0
    4.3963   13.8632    0.0000 H   0  0  0  0  0  0  0  0  0  0  0  0
    7.2809   13.4730    0.0000 H   0  0  0  0  0  0  0  0  0  0  0  0
   23.0629   -9.9562    0.0000 H   0  0  0  0  0  0  0  0  0  0  0  0
   22.9244  -13.7912    0.0000 H   0  0  0  0  0  0  0  0  0  0  0  0
   22.1274  -13.7912    0.0000 H   0  0  0  0  0  0  0  0  0  0  0  0
    7.8587   14.3138    0.0000 H   0  0  0  0  0  0  0  0  0  0  0  0
    7.9971   13.5288    0.0000 H   0  0  0  0  0  0  0  0  0  0  0  0
   26.5270  -16.5762    0.0000 H   0  0  0  0  0  0  0  0  0  0  0  0
   12.5321    4.2088    0.0000 H   0  0  0  0  0  0  0  0  0  0  0  0
   11.7351    4.2088    0.0000 H   0  0  0  0  0  0  0  0  0  0  0  0
   25.6609  -14.4562    0.0000 H   0  0  0  0  0  0  0  0  0  0  0  0
   24.8780  -10.2662    0.0000 H   0  0  0  0  0  0  0  0  0  0  0  0
   24.2580   -9.6462    0.0000 H   0  0  0  0  0  0  0  0  0  0  0  0
   23.6380  -10.2662    0.0000 H   0  0  0  0  0  0  0  0  0  0  0  0
   24.8140  -12.3031    0.0000 H   0  0  0  0  0  0  0  0  0  0  0  0
   25.6609  -12.0762    0.0000 H   0  0  0  0  0  0  0  0  0  0  0  0
   25.4340  -11.2292    0.0000 H   0  0  0  0  0  0  0  0  0  0  0  0
   14.5196    9.8165    0.0000 H   0  0  0  0  0  0  0  0  0  0  0  0
   14.1211    9.1262    0.0000 H   0  0  0  0  0  0  0  0  0  0  0  0
    5.7420   11.1571    0.0000 H   0  0  0  0  0  0  0  0  0  0  0  0
    6.3526   11.6694    0.0000 H   0  0  0  0  0  0  0  0  0  0  0  0
    4.5712   17.7263    0.0000 H   0  0  0  0  0  0  0  0  0  0  0  0
   15.2686    3.5438    0.0000 H   0  0  0  0  0  0  0  0  0  0  0  0
    4.2291   16.7866    0.0000 H   0  0  0  0  0  0  0  0  0  0  0  0
    2.4204   16.2179    0.0000 H   0  0  0  0  0  0  0  0  0  0  0  0
    1.9175   15.4996    0.0000 H   0  0  0  0  0  0  0  0  0  0  0  0
    2.6357   14.9967    0.0000 H   0  0  0  0  0  0  0  0  0  0  0  0
   27.0681  -16.3488    0.0000 H   0  0  0  0  0  0  0  0  0  0  0  0
   27.4666  -15.6585    0.0000 H   0  0  0  0  0  0  0  0  0  0  0  0
   21.2614  -15.2411    0.0000 H   0  0  0  0  0  0  0  0  0  0  0  0
   22.0584  -15.2411    0.0000 H   0  0  0  0  0  0  0  0  0  0  0  0
   36.7114  -24.4562    0.0000 H   0  0  0  0  0  0  0  0  0  0  0  0
   37.2483  -23.1462    0.0000 H   0  0  0  0  0  0  0  0  0  0  0  0
   18.7569  -10.8221    0.0000 H   0  0  0  0  0  0  0  0  0  0  0  0
   18.9838  -11.6690    0.0000 H   0  0  0  0  0  0  0  0  0  0  0  0
   19.8307  -11.4421    0.0000 H   0  0  0  0  0  0  0  0  0  0  0  0
   19.8308   -9.0901    0.0000 H   0  0  0  0  0  0  0  0  0  0  0  0
   18.9839   -8.8632    0.0000 H   0  0  0  0  0  0  0  0  0  0  0  0
   18.7569   -9.7101    0.0000 H   0  0  0  0  0  0  0  0  0  0  0  0
    6.1665   17.3876    0.0000 H   0  0  0  0  0  0  0  0  0  0  0  0
    6.7771   17.9000    0.0000 H   0  0  0  0  0  0  0  0  0  0  0  0
   10.8691    2.7589    0.0000 H   0  0  0  0  0  0  0  0  0  0  0  0
   11.6661    2.7589    0.0000 H   0  0  0  0  0  0  0  0  0  0  0  0
   26.6440  -14.1835    0.0000 H   0  0  0  0  0  0  0  0  0  0  0  0
   26.2455  -14.8738    0.0000 H   0  0  0  0  0  0  0  0  0  0  0  0
   25.4531  -17.5762    0.0000 H   0  0  0  0  0  0  0  0  0  0  0  0
   16.1346    1.4238    0.0000 H   0  0  0  0  0  0  0  0  0  0  0  0
   38.7250  -25.3738    0.0000 H   0  0  0  0  0  0  0  0  0  0  0  0
   38.3264  -24.6835    0.0000 H   0  0  0  0  0  0  0  0  0  0  0  0
   20.1833  -14.1585    0.0000 H   0  0  0  0  0  0  0  0  0  0  0  0
   20.5818  -14.8488    0.0000 H   0  0  0  0  0  0  0  0  0  0  0  0
   18.7327   -3.0762    0.0000 H   0  0  0  0  0  0  0  0  0  0  0  0
   26.8560  -19.3862    0.0000 H   0  0  0  0  0  0  0  0  0  0  0  0
   20.2569   -8.5762    0.0000 H   0  0  0  0  0  0  0  0  0  0  0  0
   19.1695   -2.8767    0.0000 H   0  0  0  0  0  0  0  0  0  0  0  0
   18.6234   -1.8278    0.0000 H   0  0  0  0  0  0  0  0  0  0  0  0
   36.0723  -24.7292    0.0000 H   0  0  0  0  0  0  0  0  0  0  0  0
   35.8454  -25.5762    0.0000 H   0  0  0  0  0  0  0  0  0  0  0  0
   36.6923  -25.8031    0.0000 H   0  0  0  0  0  0  0  0  0  0  0  0
   19.8718   -1.9371    0.0000 H   0  0  0  0  0  0  0  0  0  0  0  0
   27.9341  -14.8488    0.0000 H   0  0  0  0  0  0  0  0  0  0  0  0
   28.3327  -14.1585    0.0000 H   0  0  0  0  0  0  0  0  0  0  0  0
   15.5977   10.3538    0.0000 H   0  0  0  0  0  0  0  0  0  0  0  0
   16.1346    9.4238    0.0000 H   0  0  0  0  0  0  0  0  0  0  0  0
    6.5086   19.5673    0.0000 H   0  0  0  0  0  0  0  0  0  0  0  0
    5.8980   19.0550    0.0000 H   0  0  0  0  0  0  0  0  0  0  0  0
   34.6503  -23.8862    0.0000 H   0  0  0  0  0  0  0  0  0  0  0  0
   38.1144  -22.6462    0.0000 H   0  0  0  0  0  0  0  0  0  0  0  0
   19.5988   -4.9562    0.0000 H   0  0  0  0  0  0  0  0  0  0  0  0
   21.4044   -7.3738    0.0000 H   0  0  0  0  0  0  0  0  0  0  0  0
   21.0059   -6.6836    0.0000 H   0  0  0  0  0  0  0  0  0  0  0  0
   25.7780  -18.6835    0.0000 H   0  0  0  0  0  0  0  0  0  0  0  0
   25.3794  -19.3738    0.0000 H   0  0  0  0  0  0  0  0  0  0  0  0
   15.0608    0.4238    0.0000 H   0  0  0  0  0  0  0  0  0  0  0  0
   35.5163  -24.3862    0.0000 H   0  0  0  0  0  0  0  0  0  0  0  0
    5.4915   19.6474    0.0000 H   0  0  0  0  0  0  0  0  0  0  0  0
   16.4637   -1.3862    0.0000 H   0  0  0  0  0  0  0  0  0  0  0  0
   10.4016    4.3538    0.0000 H   0  0  0  0  0  0  0  0  0  0  0  0
   16.7737    1.6969    0.0000 H   0  0  0  0  0  0  0  0  0  0  0  0
   17.0007    2.5438    0.0000 H   0  0  0  0  0  0  0  0  0  0  0  0
   16.1537    2.7708    0.0000 H   0  0  0  0  0  0  0  0  0  0  0  0
   17.6589   -4.0762    0.0000 H   0  0  0  0  0  0  0  0  0  0  0  0
    4.8488   20.4134    0.0000 H   0  0  0  0  0  0  0  0  0  0  0  0
   37.4944  -26.2662    0.0000 H   0  0  0  0  0  0  0  0  0  0  0  0
   38.1144  -26.8862    0.0000 H   0  0  0  0  0  0  0  0  0  0  0  0
   38.7344  -26.2662    0.0000 H   0  0  0  0  0  0  0  0  0  0  0  0
   33.5722  -23.1835    0.0000 H   0  0  0  0  0  0  0  0  0  0  0  0
   33.1737  -23.8738    0.0000 H   0  0  0  0  0  0  0  0  0  0  0  0
   17.7973   -6.2411    0.0000 H   0  0  0  0  0  0  0  0  0  0  0  0
   18.5943   -6.2411    0.0000 H   0  0  0  0  0  0  0  0  0  0  0  0
   27.7221  -19.8862    0.0000 H   0  0  0  0  0  0  0  0  0  0  0  0
   17.8667   -0.9562    0.0000 H   0  0  0  0  0  0  0  0  0  0  0  0
   20.4648   -5.4562    0.0000 H   0  0  0  0  0  0  0  0  0  0  0  0
   33.2473  -21.0762    0.0000 H   0  0  0  0  0  0  0  0  0  0  0  0
   39.8464  -23.8862    0.0000 H   0  0  0  0  0  0  0  0  0  0  0  0
   20.5618   -2.0201    0.0000 H   0  0  0  0  0  0  0  0  0  0  0  0
   21.1818   -1.4001    0.0000 H   0  0  0  0  0  0  0  0  0  0  0  0
   20.5618   -0.7801    0.0000 H   0  0  0  0  0  0  0  0  0  0  0  0
   19.5988   -0.2241    0.0000 H   0  0  0  0  0  0  0  0  0  0  0  0
   18.7518    0.0028    0.0000 H   0  0  0  0  0  0  0  0  0  0  0  0
   18.5249   -0.8441    0.0000 H   0  0  0  0  0  0  0  0  0  0  0  0
    8.3070   16.2921    0.0000 H   0  0  0  0  0  0  0  0  0  0  0  0
    7.4843   15.6018    0.0000 H   0  0  0  0  0  0  0  0  0  0  0  0
   20.2569  -12.9562    0.0000 H   0  0  0  0  0  0  0  0  0  0  0  0
   21.3308  -12.9562    0.0000 H   0  0  0  0  0  0  0  0  0  0  0  0
   27.1851  -12.9562    0.0000 H   0  0  0  0  0  0  0  0  0  0  0  0
   33.2473  -22.0762    0.0000 H   0  0  0  0  0  0  0  0  0  0  0  0
   29.4541  -18.6462    0.0000 H   0  0  0  0  0  0  0  0  0  0  0  0
   15.1992   -1.7411    0.0000 H   0  0  0  0  0  0  0  0  0  0  0  0
   15.9962   -1.7411    0.0000 H   0  0  0  0  0  0  0  0  0  0  0  0
    2.7164   19.8221    0.0000 H   0  0  0  0  0  0  0  0  0  0  0  0
    3.4654   19.5495    0.0000 H   0  0  0  0  0  0  0  0  0  0  0  0
   34.6503  -20.8862    0.0000 H   0  0  0  0  0  0  0  0  0  0  0  0
   17.7283   -4.7912    0.0000 H   0  0  0  0  0  0  0  0  0  0  0  0
   16.9312   -4.7912    0.0000 H   0  0  0  0  0  0  0  0  0  0  0  0
   32.5891  -18.4562    0.0000 H   0  0  0  0  0  0  0  0  0  0  0  0
    3.8046   10.5562    0.0000 H   0  0  0  0  0  0  0  0  0  0  0  0
    4.6780   22.4762    0.0000 H   0  0  0  0  0  0  0  0  0  0  0  0
   40.7125  -24.3862    0.0000 H   0  0  0  0  0  0  0  0  0  0  0  0
   40.4664  -22.2662    0.0000 H   0  0  0  0  0  0  0  0  0  0  0  0
   39.8464  -21.6462    0.0000 H   0  0  0  0  0  0  0  0  0  0  0  0
   39.2264  -22.2662    0.0000 H   0  0  0  0  0  0  0  0  0  0  0  0
   30.3201  -18.1462    0.0000 H   0  0  0  0  0  0  0  0  0  0  0  0
    3.3268   21.9038    0.0000 H   0  0  0  0  0  0  0  0  0  0  0  0
   33.4552  -18.9562    0.0000 H   0  0  0  0  0  0  0  0  0  0  0  0
   28.8435  -20.1585    0.0000 H   0  0  0  0  0  0  0  0  0  0  0  0
   29.2421  -20.8488    0.0000 H   0  0  0  0  0  0  0  0  0  0  0  0
    5.2642   22.5048    0.0000 H   0  0  0  0  0  0  0  0  0  0  0  0
    5.8748   23.0172    0.0000 H   0  0  0  0  0  0  0  0  0  0  0  0
   27.3930  -20.4562    0.0000 H   0  0  0  0  0  0  0  0  0  0  0  0
   24.5871  -20.4562    0.0000 H   0  0  0  0  0  0  0  0  0  0  0  0
   31.8401  -17.1835    0.0000 H   0  0  0  0  0  0  0  0  0  0  0  0
   31.4416  -17.8738    0.0000 H   0  0  0  0  0  0  0  0  0  0  0  0
   35.2703  -19.2662    0.0000 H   0  0  0  0  0  0  0  0  0  0  0  0
   34.6503  -18.6462    0.0000 H   0  0  0  0  0  0  0  0  0  0  0  0
   34.0303  -19.2662    0.0000 H   0  0  0  0  0  0  0  0  0  0  0  0
   32.3813  -24.9562    0.0000 H   0  0  0  0  0  0  0  0  0  0  0  0
   35.1872  -24.9562    0.0000 H   0  0  0  0  0  0  0  0  0  0  0  0
    8.4180   19.8486    0.0000 H   0  0  0  0  0  0  0  0  0  0  0  0
    8.0474   20.6433    0.0000 H   0  0  0  0  0  0  0  0  0  0  0  0
    7.2528   20.2727    0.0000 H   0  0  0  0  0  0  0  0  0  0  0  0
   42.4445  -23.1462    0.0000 H   0  0  0  0  0  0  0  0  0  0  0  0
    5.6063   24.6845    0.0000 H   0  0  0  0  0  0  0  0  0  0  0  0
    4.9957   24.1722    0.0000 H   0  0  0  0  0  0  0  0  0  0  0  0
   27.3930  -22.0762    0.0000 H   0  0  0  0  0  0  0  0  0  0  0  0
   24.5871  -22.0762    0.0000 H   0  0  0  0  0  0  0  0  0  0  0  0
    8.1326    3.4238    0.0000 H   0  0  0  0  0  0  0  0  0  0  0  0
    8.6695    4.3538    0.0000 H   0  0  0  0  0  0  0  0  0  0  0  0
   14.1948   -1.0762    0.0000 H   0  0  0  0  0  0  0  0  0  0  0  0
    2.0000   20.7905    0.0000 H   0  0  0  0  0  0  0  0  0  0  0  0
   36.0532  -20.4562    0.0000 H   0  0  0  0  0  0  0  0  0  0  0  0
   32.3813  -26.5762    0.0000 H   0  0  0  0  0  0  0  0  0  0  0  0
   35.1872  -26.5762    0.0000 H   0  0  0  0  0  0  0  0  0  0  0  0
   41.8339  -24.6585    0.0000 H   0  0  0  0  0  0  0  0  0  0  0  0
   42.2324  -25.3488    0.0000 H   0  0  0  0  0  0  0  0  0  0  0  0
    6.5911   23.6182    0.0000 H   0  0  0  0  0  0  0  0  0  0  0  0
    7.2017   24.1305    0.0000 H   0  0  0  0  0  0  0  0  0  0  0  0
    8.9986    1.9238    0.0000 H   0  0  0  0  0  0  0  0  0  0  0  0
   43.8475  -23.5762    0.0000 H   0  0  0  0  0  0  0  0  0  0  0  0
   33.7842  -27.3862    0.0000 H   0  0  0  0  0  0  0  0  0  0  0  0
   29.1250  -11.4562    0.0000 H   0  0  0  0  0  0  0  0  0  0  0  0
   28.0512  -11.4562    0.0000 H   0  0  0  0  0  0  0  0  0  0  0  0
   30.3201  -21.3862    0.0000 H   0  0  0  0  0  0  0  0  0  0  0  0
   15.0608   -5.5762    0.0000 H   0  0  0  0  0  0  0  0  0  0  0  0
   15.5977   -4.6462    0.0000 H   0  0  0  0  0  0  0  0  0  0  0  0
   29.9911  -12.9562    0.0000 H   0  0  0  0  0  0  0  0  0  0  0  0
   43.6396  -21.4562    0.0000 H   0  0  0  0  0  0  0  0  0  0  0  0
    3.5801   25.1319    0.0000 H   0  0  0  0  0  0  0  0  0  0  0  0
    4.5892   24.7646    0.0000 H   0  0  0  0  0  0  0  0  0  0  0  0
    6.5346   25.6528    0.0000 H   0  0  0  0  0  0  0  0  0  0  0  0
   33.4552  -15.9562    0.0000 H   0  0  0  0  0  0  0  0  0  0  0  0
   32.3813  -15.9562    0.0000 H   0  0  0  0  0  0  0  0  0  0  0  0
   25.4531  -23.5762    0.0000 H   0  0  0  0  0  0  0  0  0  0  0  0
   44.7326  -22.8031    0.0000 H   0  0  0  0  0  0  0  0  0  0  0  0
   45.5795  -22.5762    0.0000 H   0  0  0  0  0  0  0  0  0  0  0  0
   45.3526  -21.7292    0.0000 H   0  0  0  0  0  0  0  0  0  0  0  0
   43.6396  -20.4562    0.0000 H   0  0  0  0  0  0  0  0  0  0  0  0
   45.0426  -18.6462    0.0000 H   0  0  0  0  0  0  0  0  0  0  0  0
   43.8475  -26.5762    0.0000 H   0  0  0  0  0  0  0  0  0  0  0  0
   46.1207  -19.3488    0.0000 H   0  0  0  0  0  0  0  0  0  0  0  0
   46.5192  -18.6585    0.0000 H   0  0  0  0  0  0  0  0  0  0  0  0
    8.8705   26.3989    0.0000 H   0  0  0  0  0  0  0  0  0  0  0  0
    7.8614   26.7662    0.0000 H   0  0  0  0  0  0  0  0  0  0  0  0
    9.1713   24.6931    0.0000 H   0  0  0  0  0  0  0  0  0  0  0  0
   43.6396  -19.0762    0.0000 H   0  0  0  0  0  0  0  0  0  0  0  0
   44.1766  -18.1462    0.0000 H   0  0  0  0  0  0  0  0  0  0  0  0
   44.5056  -17.5762    0.0000 H   0  0  0  0  0  0  0  0  0  0  0  0
   47.3116  -17.5762    0.0000 H   0  0  0  0  0  0  0  0  0  0  0  0
   44.5056  -15.9562    0.0000 H   0  0  0  0  0  0  0  0  0  0  0  0
   47.3116  -15.9562    0.0000 H   0  0  0  0  0  0  0  0  0  0  0  0
   46.4455  -14.4562    0.0000 H   0  0  0  0  0  0  0  0  0  0  0  0
  1163  1  0  0  0  0
  1209  1  0  0  0  0
  2 95  2  0  0  0  0
  3 97  2  0  0  0  0
  4 98  2  0  0  0  0
  5116  2  0  0  0  0
  6117  2  0  0  0  0
  7122  2  0  0  0  0
  8124  2  0  0  0  0
  9125  2  0  0  0  0
 10126  2  0  0  0  0
 11138  2  0  0  0  0
 12140  2  0  0  0  0
 13148  2  0  0  0  0
 14151  2  0  0  0  0
 15159  1  0  0  0  0
 15408  1  0  0  0  0
 16153  2  0  0  0  0
 17157  2  0  0  0  0
 18158  2  0  0  0  0
 19159  2  0  0  0  0
 20171  2  0  0  0  0
 21174  2  0  0  0  0
 22175  2  0  0  0  0
 23177  2  0  0  0  0
 24178  2  0  0  0  0
 25179  2  0  0  0  0
 26186  1  0  0  0  0
 26440  1  0  0  0  0
 27188  1  0  0  0  0
 27441  1  0  0  0  0
191 28  1  1  0  0  0
 28442  1  0  0  0  0
 29187  2  0  0  0  0
 30189  2  0  0  0  0
 31195  2  0  0  0  0
 32199  1  0  0  0  0
 32454  1  0  0  0  0
 33198  2  0  0  0  0
 34208  2  0  0  0  0
 35212  2  0  0  0  0
 36216  1  0  0  0  0
 36464  1  0  0  0  0
 37215  2  0  0  0  0
 38221  2  0  0  0  0
 39223  2  0  0  0  0
 40225  1  0  0  0  0
 40470  1  0  0  0  0
 41225  2  0  0  0  0
 42228  2  0  0  0  0
 43236  1  0  0  0  0
 43482  1  0  0  0  0
 89 44  1  6  0  0  0
 44 95  1  0  0  0  0
 44246  1  0  0  0  0
 88 45  1  1  0  0  0
 45 98  1  0  0  0  0
 45247  1  0  0  0  0
 46 97  1  0  0  0  0
 99 46  1  6  0  0  0
 46261  1  0  0  0  0
 94 47  1  6  0  0  0
 47116  1  0  0  0  0
 47269  1  0  0  0  0
101 48  1  1  0  0  0
 48126  1  0  0  0  0
 48287  1  0  0  0  0
107 49  1  6  0  0  0
 49125  1  0  0  0  0
 49288  1  0  0  0  0
114 50  1  1  0  0  0
 50117  1  0  0  0  0
 50293  1  0  0  0  0
115 51  1  1  0  0  0
 51122  1  0  0  0  0
 51294  1  0  0  0  0
111 52  1  1  0  0  0
 52138  1  0  0  0  0
 52302  1  0  0  0  0
110 53  1  1  0  0  0
 53148  1  0  0  0  0
 53314  1  0  0  0  0
 54124  1  0  0  0  0
135 54  1  6  0  0  0
 54315  1  0  0  0  0
129 55  1  6  0  0  0
 55157  1  0  0  0  0
 55337  1  0  0  0  0
 56140  1  0  0  0  0
 56166  1  0  0  0  0
 56345  1  0  0  0  0
 57131  1  0  0  0  0
 57354  1  0  0  0  0
 57355  1  0  0  0  0
142 58  1  1  0  0  0
 58177  1  0  0  0  0
 58359  1  0  0  0  0
149 59  1  6  0  0  0
 59175  1  0  0  0  0
 59365  1  0  0  0  0
 60158  1  0  0  0  0
164 60  1  1  0  0  0
 60366  1  0  0  0  0
 61153  1  0  0  0  0
170 61  1  1  0  0  0
 61367  1  0  0  0  0
 62146  1  0  0  0  0
 62194  1  0  0  0  0
 62369  1  0  0  0  0
154 63  1  6  0  0  0
 63174  1  0  0  0  0
 63373  1  0  0  0  0
155 64  1  1  0  0  0
 64187  1  0  0  0  0
 64382  1  0  0  0  0
168 65  1  1  0  0  0
 65171  1  0  0  0  0
 65383  1  0  0  0  0
165 66  1  1  0  0  0
 66178  1  0  0  0  0
 66384  1  0  0  0  0
 67151  1  0  0  0  0
 67393  1  0  0  0  0
 67394  1  0  0  0  0
 68152  1  0  0  0  0
 68395  1  0  0  0  0
 68396  1  0  0  0  0
 69162  1  0  0  0  0
 69204  1  0  0  0  0
 69397  1  0  0  0  0
 70179  1  0  0  0  0
180 70  1  6  0  0  0
 70398  1  0  0  0  0
181 71  1  6  0  0  0
 71208  1  0  0  0  0
 71410  1  0  0  0  0
 72189  1  0  0  0  0
196 72  1  6  0  0  0
 72415  1  0  0  0  0
185 73  1  1  0  0  0
 73198  1  0  0  0  0
 73414  1  0  0  0  0
193 74  1  6  0  0  0
 74195  1  0  0  0  0
 74416  1  0  0  0  0
 75194  1  0  0  0  0
 75438  1  0  0  0  0
 75439  1  0  0  0  0
 76194  2  0  0  0  0
 76449  1  0  0  0  0
210 77  1  1  0  0  0
 77223  1  0  0  0  0
 77450  1  0  0  0  0
 78204  1  0  0  0  0
 78452  1  0  0  0  0
 78453  1  0  0  0  0
 79212  1  0  0  0  0
 79455  1  0  0  0  0
 79456  1  0  0  0  0
 80204  2  0  0  0  0
 80457  1  0  0  0  0
 81215  1  0  0  0  0
 81459  1  0  0  0  0
 81460  1  0  0  0  0
 82220  1  0  0  0  0
 82227  1  0  0  0  0
 82461  1  0  0  0  0
 83221  1  0  0  0  0
 83462  1  0  0  0  0
 83463  1  0  0  0  0
224 84  1  1  0  0  0
 84228  1  0  0  0  0
 84468  1  0  0  0  0
 85227  1  0  0  0  0
 85473  1  0  0  0  0
 85474  1  0  0  0  0
 86227  2  0  0  0  0
 86475  1  0  0  0  0
229 87  1  1  0  0  0
 87476  1  0  0  0  0
 87477  1  0  0  0  0
 88 90  1  0  0  0  0
 88 95  1  0  0  0  0
 88237  1  0  0  0  0
 89 91  1  0  0  0  0
 89 97  1  0  0  0  0
 89238  1  0  0  0  0
 90 92  1  0  0  0  0
 90239  1  0  0  0  0
 90240  1  0  0  0  0
 91 93  1  0  0  0  0
 91241  1  0  0  0  0
 91242  1  0  0  0  0
 92103  1  0  0  0  0
 92104  1  0  0  0  0
 92243  1  0  0  0  0
 93105  1  0  0  0  0
 93106  1  0  0  0  0
 93244  1  0  0  0  0
 94 96  1  0  0  0  0
 94 98  1  0  0  0  0
 94245  1  0  0  0  0
 96102  1  0  0  0  0
 96248  1  0  0  0  0
 96249  1  0  0  0  0
 99108  1  0  0  0  0
 99117  1  0  0  0  0
 99250  1  0  0  0  0
100101  1  0  0  0  0
100113  1  0  0  0  0
100123  1  1  0  0  0
100251  1  0  0  0  0
101124  1  0  0  0  0
101252  1  0  0  0  0
102112  1  0  0  0  0
102253  1  0  0  0  0
102254  1  0  0  0  0
103255  1  0  0  0  0
103256  1  0  0  0  0
103257  1  0  0  0  0
104258  1  0  0  0  0
104259  1  0  0  0  0
104260  1  0  0  0  0
105262  1  0  0  0  0
105263  1  0  0  0  0
105264  1  0  0  0  0
106265  1  0  0  0  0
106266  1  0  0  0  0
106267  1  0  0  0  0
107109  1  0  0  0  0
107122  1  0  0  0  0
107268  1  0  0  0  0
108128  1  0  0  0  0
108270  1  0  0  0  0
108271  1  0  0  0  0
109132  1  0  0  0  0
109133  1  0  0  0  0
109272  1  0  0  0  0
110116  1  0  0  0  0
110120  1  0  0  0  0
110273  1  0  0  0  0
111119  1  0  0  0  0
111125  1  0  0  0  0
111274  1  0  0  0  0
112131  1  0  0  0  0
112275  1  0  0  0  0
112276  1  0  0  0  0
113136  1  0  0  0  0
113277  1  0  0  0  0
113278  1  0  0  0  0
114126  1  0  0  0  0
114134  1  0  0  0  0
114279  1  0  0  0  0
115118  1  0  0  0  0
115140  1  0  0  0  0
115280  1  0  0  0  0
118121  1  0  0  0  0
118281  1  0  0  0  0
118282  1  0  0  0  0
119127  1  0  0  0  0
119283  1  0  0  0  0
119284  1  0  0  0  0
120130  1  0  0  0  0
120285  1  0  0  0  0
120286  1  0  0  0  0
121143  1  0  0  0  0
121144  1  0  0  0  0
121289  1  0  0  0  0
123290  1  0  0  0  0
123291  1  0  0  0  0
123292  1  0  0  0  0
127139  1  0  0  0  0
127295  1  0  0  0  0
127296  1  0  0  0  0
128151  1  0  0  0  0
128297  1  0  0  0  0
128298  1  0  0  0  0
129137  1  0  0  0  0
129138  1  0  0  0  0
129299  1  0  0  0  0
130146  1  0  0  0  0
130300  1  0  0  0  0
130301  1  0  0  0  0
131309  1  0  0  0  0
131310  1  0  0  0  0
132303  1  0  0  0  0
132304  1  0  0  0  0
132305  1  0  0  0  0
133306  1  0  0  0  0
133307  1  0  0  0  0
133308  1  0  0  0  0
134159  1  0  0  0  0
134311  1  0  0  0  0
134312  1  0  0  0  0
135145  1  0  0  0  0
135153  1  0  0  0  0
135313  1  0  0  0  0
136316  1  0  0  0  0
136317  1  0  0  0  0
136318  1  0  0  0  0
137147  1  0  0  0  0
137319  1  0  0  0  0
137320  1  0  0  0  0
139152  1  0  0  0  0
139321  1  0  0  0  0
139322  1  0  0  0  0
141142  1  0  0  0  0
141150  1  0  0  0  0
141160  1  6  0  0  0
141323  1  0  0  0  0
142158  1  0  0  0  0
142324  1  0  0  0  0
143325  1  0  0  0  0
143326  1  0  0  0  0
143327  1  0  0  0  0
144328  1  0  0  0  0
144329  1  0  0  0  0
144330  1  0  0  0  0
145163  1  0  0  0  0
145331  1  0  0  0  0
145332  1  0  0  0  0
146333  1  0  0  0  0
146334  1  0  0  0  0
147162  1  0  0  0  0
147335  1  0  0  0  0
147336  1  0  0  0  0
148149  1  0  0  0  0
149169  1  0  0  0  0
149338  1  0  0  0  0
150172  1  0  0  0  0
150339  1  0  0  0  0
150340  1  0  0  0  0
152341  1  0  0  0  0
152342  1  0  0  0  0
154156  1  0  0  0  0
154171  1  0  0  0  0
154343  1  0  0  0  0
155157  1  0  0  0  0
155167  1  0  0  0  0
155344  1  0  0  0  0
156161  1  0  0  0  0
156346  1  0  0  0  0
156347  1  0  0  0  0
160348  1  0  0  0  0
160349  1  0  0  0  0
160350  1  0  0  0  0
161182  1  0  0  0  0
161183  1  0  0  0  0
161351  1  0  0  0  0
162352  1  0  0  0  0
162353  1  0  0  0  0
163356  1  0  0  0  0
163357  1  0  0  0  0
164173  1  0  0  0  0
164179  1  0  0  0  0
164358  1  0  0  0  0
165174  1  0  0  0  0
165176  1  0  0  0  0
165360  1  0  0  0  0
166178  1  0  0  0  0
166361  1  0  0  0  0
166362  1  0  0  0  0
167184  1  0  0  0  0
167363  1  0  0  0  0
167364  1  0  0  0  0
168175  1  0  0  0  0
168186  1  0  0  0  0
168368  1  0  0  0  0
169370  1  0  0  0  0
169371  1  0  0  0  0
169372  1  0  0  0  0
170188  1  0  0  0  0
170189  1  0  0  0  0
170374  1  0  0  0  0
172375  1  0  0  0  0
172376  1  0  0  0  0
172377  1  0  0  0  0
173192  1  0  0  0  0
173378  1  0  0  0  0
173379  1  0  0  0  0
176190  1  0  0  0  0
176380  1  0  0  0  0
176381  1  0  0  0  0
177181  1  0  0  0  0
180191  1  0  0  0  0
180195  1  0  0  0  0
180385  1  0  0  0  0
181197  1  0  0  0  0
181386  1  0  0  0  0
182387  1  0  0  0  0
182388  1  0  0  0  0
182389  1  0  0  0  0
183390  1  0  0  0  0
183391  1  0  0  0  0
183392  1  0  0  0  0
184201  2  0  0  0  0
184202  1  0  0  0  0
185187  1  0  0  0  0
185199  1  0  0  0  0
185399  1  0  0  0  0
186400  1  0  0  0  0
186401  1  0  0  0  0
188402  1  0  0  0  0
188403  1  0  0  0  0
190212  1  0  0  0  0
190405  1  0  0  0  0
190406  1  0  0  0  0
191205  1  0  0  0  0
191404  1  0  0  0  0
192206  2  0  0  0  0
192207  1  0  0  0  0
193198  1  0  0  0  0
193203  1  0  0  0  0
193407  1  0  0  0  0
196200  1  0  0  0  0
196215  1  0  0  0  0
196409  1  0  0  0  0
197411  1  0  0  0  0
197412  1  0  0  0  0
197413  1  0  0  0  0
199417  1  0  0  0  0
199418  1  0  0  0  0
200211  1  0  0  0  0
200419  1  0  0  0  0
200420  1  0  0  0  0
201213  1  0  0  0  0
201421  1  0  0  0  0
202214  2  0  0  0  0
202422  1  0  0  0  0
203221  1  0  0  0  0
203423  1  0  0  0  0
203424  1  0  0  0  0
205425  1  0  0  0  0
205426  1  0  0  0  0
205427  1  0  0  0  0
206217  1  0  0  0  0
206428  1  0  0  0  0
207218  2  0  0  0  0
207429  1  0  0  0  0
208210  1  0  0  0  0
209430  1  0  0  0  0
209431  1  0  0  0  0
209432  1  0  0  0  0
210219  1  0  0  0  0
210433  1  0  0  0  0
211220  1  0  0  0  0
211434  1  0  0  0  0
211435  1  0  0  0  0
213216  2  0  0  0  0
213436  1  0  0  0  0
214216  1  0  0  0  0
214437  1  0  0  0  0
217222  2  0  0  0  0
217443  1  0  0  0  0
218222  1  0  0  0  0
218444  1  0  0  0  0
219225  1  0  0  0  0
219445  1  0  0  0  0
219446  1  0  0  0  0
220447  1  0  0  0  0
220448  1  0  0  0  0
222451  1  0  0  0  0
223224  1  0  0  0  0
224226  1  0  0  0  0
224458  1  0  0  0  0
226465  1  0  0  0  0
226466  1  0  0  0  0
226467  1  0  0  0  0
228229  1  0  0  0  0
229230  1  0  0  0  0
229469  1  0  0  0  0
230231  1  0  0  0  0
230471  1  0  0  0  0
230472  1  0  0  0  0
231232  2  0  0  0  0
231233  1  0  0  0  0
232234  1  0  0  0  0
232478  1  0  0  0  0
233235  2  0  0  0  0
233479  1  0  0  0  0
234236  2  0  0  0  0
234480  1  0  0  0  0
235236  1  0  0  0  0
235481  1  0  0  0  0
M  END
> <PUBCHEM_COMPOUND_CID>
16132413

> <PUBCHEM_COMPOUND_CANONICALIZED>
1

> <PUBCHEM_CACTVS_COMPLEXITY>
7640

> <PUBCHEM_CACTVS_HBOND_ACCEPTOR>
49

> <PUBCHEM_CACTVS_HBOND_DONOR>
52

> <PUBCHEM_CACTVS_ROTATABLE_BOND>
118

> <PUBCHEM_CACTVS_SUBSKEYS>
AAADcfB//gBAAAAAAAAAAAAAAAAAAAAAAAAwYMAAAAAAAAABUAAAHgQQCAAADTzl2AazDoLAAgioAiHSOAACAACgIBAJiIGOCIiKdj6i2TOUcAAm9hOYmAe/y6COIAAAAAAAAABAAAAAAAAAAAAAAAAAAA==

> <PUBCHEM_IUPAC_OPENEYE_NAME>
(3S)-4-[[(1S)-2-[[(1S,2S)-1-[[(1S)-2-[[(1S,2R)-1-[[(1S)-3-amino-1-[[(1S)-2-[[(1S)-2-[[(1S)-1-[[(1S)-5-amino-1-[[(1S)-1-[[(1S)-1-[[2-[[(1S)-4-amino-1-[[(1S)-1-[[(1S)-2-[[(1S)-2-[[(1S)-1-[[(1S)-5-amino-1-[[(1S)-1-[[(1S)-1-[[(1S)-4-amino-1-[[(1S)-2-[[(1S,2S)-1-[[(1S)-1-[[(1S)-2-[[(1S)-1-carbamoyl-4-guanidino-butyl]amino]-1-(hydroxymethyl)-2-oxo-ethyl]carbamoyl]-3-methylsulfanyl-propyl]carbamoyl]-2-methyl-butyl]amino]-1-(carboxymethyl)-2-oxo-ethyl]carbamoyl]-4-oxo-butyl]carbamoyl]-3-methyl-butyl]carbamoyl]-3-methyl-butyl]carbamoyl]pentyl]carbamoyl]-4-guanidino-butyl]amino]-1-methyl-2-oxo-ethyl]amino]-1-(hydroxymethyl)-2-oxo-ethyl]carbamoyl]-3-methyl-butyl]carbamoyl]-4-oxo-butyl]amino]-2-oxo-ethyl]carbamoyl]-3-methyl-butyl]carbamoyl]-2-methyl-propyl]carbamoyl]pentyl]carbamoyl]-4-guanidino-butyl]amino]-1-[(4-hydroxyphenyl)methyl]-2-oxo-ethyl]amino]-1-(hydroxymethyl)-2-oxo-ethyl]carbamoyl]-3-oxo-propyl]carbamoyl]-2-hydroxy-propyl]amino]-1-benzyl-2-oxo-ethyl]carbamoyl]-2-methyl-butyl]amino]-1-methyl-2-oxo-ethyl]amino]-3-[[(2S)-2-[[(2S)-2-amino-3-(4-hydroxyphenyl)propanoyl]amino]propanoyl]amino]-4-oxo-butanoic acid

> <PUBCHEM_IUPAC_CAS_NAME>
(3S)-4-[[(2S)-1-[[(2S,3S)-1-[[(2S)-1-[[(2S,3R)-1-[[(2S)-4-amino-1-[[(2S)-1-[[(2S)-1-[[(2S)-1-[[(2S)-6-amino-1-[[(2S)-1-[[(2S)-1-[[2-[[(2S)-5-amino-1-[[(2S)-1-[[(2S)-1-[[(2S)-1-[[(2S)-1-[[(2S)-6-amino-1-[[(2S)-1-[[(2S)-1-[[(2S)-5-amino-1-[[(2S)-1-[[(2S,3S)-1-[[(2S)-1-[[(2S)-1-[[(2S)-1-amino-5-carbamimidamido-1-oxopentan-2-yl]amino]-3-hydroxy-1-oxopropan-2-yl]amino]-4-(methylthio)-1-oxobutan-2-yl]amino]-3-methyl-1-oxopentan-2-yl]amino]-3-carboxy-1-oxopropan-2-yl]amino]-1,5-dioxopentan-2-yl]amino]-4-methyl-1-oxopentan-2-yl]amino]-4-methyl-1-oxopentan-2-yl]amino]-1-oxohexan-2-yl]amino]-5-carbamimidamido-1-oxopentan-2-yl]amino]-1-oxopropan-2-yl]amino]-3-hydroxy-1-oxopropan-2-yl]amino]-4-methyl-1-oxopentan-2-yl]amino]-1,5-dioxopentan-2-yl]amino]-2-oxoethyl]amino]-4-methyl-1-oxopentan-2-yl]amino]-3-methyl-1-oxobutan-2-yl]amino]-1-oxohexan-2-yl]amino]-5-carbamimidamido-1-oxopentan-2-yl]amino]-3-(4-hydroxyphenyl)-1-oxopropan-2-yl]amino]-3-hydroxy-1-oxopropan-2-yl]amino]-1,4-dioxobutan-2-yl]amino]-3-hydroxy-1-oxobutan-2-yl]amino]-1-oxo-3-phenylpropan-2-yl]amino]-3-methyl-1-oxopentan-2-yl]amino]-1-oxopropan-2-yl]amino]-3-[[(2S)-2-[[(2S)-2-amino-3-(4-hydroxyphenyl)-1-oxopropyl]amino]-1-oxopropyl]amino]-4-oxobutanoic acid

> <PUBCHEM_IUPAC_NAME_MARKUP>
(3<I>S</I>)-4-[[(2<I>S</I>)-1-[[(2<I>S</I>,3<I>S</I>)-1-[[(2<I>S</I>)-1-[[(2<I>S</I>,3<I>R</I>)-1-[[(2<I>S</I>)-4-amino-1-[[(2<I>S</I>)-1-[[(2<I>S</I>)-1-[[(2<I>S</I>)-1-[[(2<I>S</I>)-6-amino-1-[[(2<I>S</I>)-1-[[(2<I>S</I>)-1-[[2-[[(2<I>S</I>)-5-amino-1-[[(2<I>S</I>)-1-[[(2<I>S</I>)-1-[[(2<I>S</I>)-1-[[(2<I>S</I>)-1-[[(2<I>S</I>)-6-amino-1-[[(2<I>S</I>)-1-[[(2<I>S</I>)-1-[[(2<I>S</I>)-5-amino-1-[[(2<I>S</I>)-1-[[(2<I>S</I>,3<I>S</I>)-1-[[(2<I>S</I>)-1-[[(2<I>S</I>)-1-[[(2<I>S</I>)-1-amino-5-carbamimidamido-1-oxopentan-2-yl]amino]-3-hydroxy-1-oxopropan-2-yl]amino]-4-methylsulfanyl-1-oxobutan-2-yl]amino]-3-methyl-1-oxopentan-2-yl]amino]-3-carboxy-1-oxopropan-2-yl]amino]-1,5-dioxopentan-2-yl]amino]-4-methyl-1-oxopentan-2-yl]amino]-4-methyl-1-oxopentan-2-yl]amino]-1-oxohexan-2-yl]amino]-5-carbamimidamido-1-oxopentan-2-yl]amino]-1-oxopropan-2-yl]amino]-3-hydroxy-1-oxopropan-2-yl]amino]-4-methyl-1-oxopentan-2-yl]amino]-1,5-dioxopentan-2-yl]amino]-2-oxoethyl]amino]-4-methyl-1-oxopentan-2-yl]amino]-3-methyl-1-oxobutan-2-yl]amino]-1-oxohexan-2-yl]amino]-5-carbamimidamido-1-oxopentan-2-yl]amino]-3-(4-hydroxyphenyl)-1-oxopropan-2-yl]amino]-3-hydroxy-1-oxopropan-2-yl]amino]-1,4-dioxobutan-2-yl]amino]-3-hydroxy-1-oxobutan-2-yl]amino]-1-oxo-3-phenylpropan-2-yl]amino]-3-methyl-1-oxopentan-2-yl]amino]-1-oxopropan-2-yl]amino]-3-[[(2<I>S</I>)-2-[[(2<I>S</I>)-2-amino-3-(4-hydroxyphenyl)propanoyl]amino]propanoyl]amino]-4-oxobutanoic acid

> <PUBCHEM_IUPAC_NAME>
(3S)-4-[[(2S)-1-[[(2S,3S)-1-[[(2S)-1-[[(2S,3R)-1-[[(2S)-4-amino-1-[[(2S)-1-[[(2S)-1-[[(2S)-1-[[(2S)-6-amino-1-[[(2S)-1-[[(2S)-1-[[2-[[(2S)-5-amino-1-[[(2S)-1-[[(2S)-1-[[(2S)-1-[[(2S)-1-[[(2S)-6-amino-1-[[(2S)-1-[[(2S)-1-[[(2S)-5-amino-1-[[(2S)-1-[[(2S,3S)-1-[[(2S)-1-[[(2S)-1-[[(2S)-1-amino-5-carbamimidamido-1-oxopentan-2-yl]amino]-3-hydroxy-1-oxopropan-2-yl]amino]-4-methylsulfanyl-1-oxobutan-2-yl]amino]-3-methyl-1-oxopentan-2-yl]amino]-3-carboxy-1-oxopropan-2-yl]amino]-1,5-dioxopentan-2-yl]amino]-4-methyl-1-oxopentan-2-yl]amino]-4-methyl-1-oxopentan-2-yl]amino]-1-oxohexan-2-yl]amino]-5-carbamimidamido-1-oxopentan-2-yl]amino]-1-oxopropan-2-yl]amino]-3-hydroxy-1-oxopropan-2-yl]amino]-4-methyl-1-oxopentan-2-yl]amino]-1,5-dioxopentan-2-yl]amino]-2-oxoethyl]amino]-4-methyl-1-oxopentan-2-yl]amino]-3-methyl-1-oxobutan-2-yl]amino]-1-oxohexan-2-yl]amino]-5-carbamimidamido-1-oxopentan-2-yl]amino]-3-(4-hydroxyphenyl)-1-oxopropan-2-yl]amino]-3-hydroxy-1-oxopropan-2-yl]amino]-1,4-dioxobutan-2-yl]amino]-3-hydroxy-1-oxobutan-2-yl]amino]-1-oxo-3-phenylpropan-2-yl]amino]-3-methyl-1-oxopentan-2-yl]amino]-1-oxopropan-2-yl]amino]-3-[[(2S)-2-[[(2S)-2-amino-3-(4-hydroxyphenyl)propanoyl]amino]propanoyl]amino]-4-oxobutanoic acid

> <PUBCHEM_IUPAC_SYSTEMATIC_NAME>
(3S)-4-[[(2S)-1-[[(2S,3S)-1-[[(2S)-1-[[(2S,3R)-1-[[(2S)-4-azanyl-1-[[(2S)-1-[[(2S)-1-[[(2S)-1-[[(2S)-6-azanyl-1-[[(2S)-1-[[(2S)-1-[[2-[[(2S)-5-azanyl-1-[[(2S)-1-[[(2S)-1-[[(2S)-1-[[(2S)-1-[[(2S)-6-azanyl-1-[[(2S)-1-[[(2S)-1-[[(2S)-5-azanyl-1-[[(2S)-1-[[(2S,3S)-1-[[(2S)-1-[[(2S)-1-[[(2S)-1-azanyl-5-carbamimidamido-1-oxidanylidene-pentan-2-yl]amino]-3-oxidanyl-1-oxidanylidene-propan-2-yl]amino]-4-methylsulfanyl-1-oxidanylidene-butan-2-yl]amino]-3-methyl-1-oxidanylidene-pentan-2-yl]amino]-4-oxidanyl-1,4-bis(oxidanylidene)butan-2-yl]amino]-1,5-bis(oxidanylidene)pentan-2-yl]amino]-4-methyl-1-oxidanylidene-pentan-2-yl]amino]-4-methyl-1-oxidanylidene-pentan-2-yl]amino]-1-oxidanylidene-hexan-2-yl]amino]-5-carbamimidamido-1-oxidanylidene-pentan-2-yl]amino]-1-oxidanylidene-propan-2-yl]amino]-3-oxidanyl-1-oxidanylidene-propan-2-yl]amino]-4-methyl-1-oxidanylidene-pentan-2-yl]amino]-1,5-bis(oxidanylidene)pentan-2-yl]amino]-2-oxidanylidene-ethyl]amino]-4-methyl-1-oxidanylidene-pentan-2-yl]amino]-3-methyl-1-oxidanylidene-butan-2-yl]amino]-1-oxidanylidene-hexan-2-yl]amino]-5-carbamimidamido-1-oxidanylidene-pentan-2-yl]amino]-3-(4-hydroxyphenyl)-1-oxidanylidene-propan-2-yl]amino]-3-oxidanyl-1-oxidanylidene-propan-2-yl]amino]-1,4-bis(oxidanylidene)butan-2-yl]amino]-3-oxidanyl-1-oxidanylidene-butan-2-yl]amino]-1-oxidanylidene-3-phenyl-propan-2-yl]amino]-3-methyl-1-oxidanylidene-pentan-2-yl]amino]-1-oxidanylidene-propan-2-yl]amino]-3-[[(2S)-2-[[(2S)-2-azanyl-3-(4-hydroxyphenyl)propanoyl]amino]propanoyl]amino]-4-oxidanylidene-butanoic acid

> <PUBCHEM_IUPAC_TRADITIONAL_NAME>
(3S)-4-[[(1S)-2-[[(1S,2S)-1-[[(1S)-2-[[(1S,2R)-1-[[(1S)-3-amino-1-[[(1S)-2-[[(1S)-2-[[(1S)-1-[[(1S)-5-amino-1-[[(1S)-1-[[(1S)-1-[[2-[[(1S)-4-amino-1-[[(1S)-1-[[(1S)-2-[[(1S)-2-[[(1S)-1-[[(1S)-5-amino-1-[[(1S)-1-[[(1S)-1-[[(1S)-4-amino-1-[[(1S)-2-[[(1S,2S)-1-[[(1S)-1-[[(1S)-2-[[(1S)-1-carbamoyl-4-guanidino-butyl]amino]-2-keto-1-methylol-ethyl]carbamoyl]-3-(methylthio)propyl]carbamoyl]-2-methyl-butyl]amino]-1-(carboxymethyl)-2-keto-ethyl]carbamoyl]-4-keto-butyl]carbamoyl]-3-methyl-butyl]carbamoyl]-3-methyl-butyl]carbamoyl]pentyl]carbamoyl]-4-guanidino-butyl]amino]-2-keto-1-methyl-ethyl]amino]-2-keto-1-methylol-ethyl]carbamoyl]-3-methyl-butyl]carbamoyl]-4-keto-butyl]amino]-2-keto-ethyl]carbamoyl]-3-methyl-butyl]carbamoyl]-2-methyl-propyl]carbamoyl]pentyl]carbamoyl]-4-guanidino-butyl]amino]-1-(4-hydroxybenzyl)-2-keto-ethyl]amino]-2-keto-1-methylol-ethyl]carbamoyl]-3-keto-propyl]carbamoyl]-2-hydroxy-propyl]amino]-1-benzyl-2-keto-ethyl]carbamoyl]-2-methyl-butyl]amino]-2-keto-1-methyl-ethyl]amino]-3-[[(2S)-2-[[(2S)-2-amino-3-(4-hydroxyphenyl)propanoyl]amino]propanoyl]amino]-4-keto-butyric acid

> <PUBCHEM_IUPAC_INCHI>
InChI=1S/C149H246N44O42S/c1-20-77(13)116(191-122(211)81(17)168-132(221)104(66-113(204)205)178-121(210)79(15)167-123(212)88(152)62-84-39-43-86(198)44-40-84)145(234)185-102(63-83-32-23-22-24-33-83)138(227)193-118(82(18)197)146(235)186-103(65-111(155)202)137(226)189-108(71-196)142(231)182-101(64-85-41-45-87(199)46-42-85)136(225)175-93(38-31-56-165-149(161)162)126(215)174-91(35-26-28-53-151)131(220)190-115(76(11)12)143(232)184-97(58-72(3)4)124(213)166-68-112(203)170-94(47-49-109(153)200)128(217)180-100(61-75(9)10)135(224)188-106(69-194)140(229)169-80(16)120(209)172-92(37-30-55-164-148(159)160)125(214)173-90(34-25-27-52-150)127(216)179-99(60-74(7)8)134(223)181-98(59-73(5)6)133(222)176-95(48-50-110(154)201)129(218)183-105(67-114(206)207)139(228)192-117(78(14)21-2)144(233)177-96(51-57-236-19)130(219)187-107(70-195)141(230)171-89(119(156)208)36-29-54-163-147(157)158/h22-24,32-33,39-46,72-82,88-108,115-118,194-199H,20-21,25-31,34-38,47-71,150-152H2,1-19H3,(H2,153,200)(H2,154,201)(H2,155,202)(H2,156,208)(H,166,213)(H,167,212)(H,168,221)(H,169,229)(H,170,203)(H,171,230)(H,172,209)(H,173,214)(H,174,215)(H,175,225)(H,176,222)(H,177,233)(H,178,210)(H,179,216)(H,180,217)(H,181,223)(H,182,231)(H,183,218)(H,184,232)(H,185,234)(H,186,235)(H,187,219)(H,188,224)(H,189,226)(H,190,220)(H,191,211)(H,192,228)(H,193,227)(H,204,205)(H,206,207)(H4,157,158,163)(H4,159,160,164)(H4,161,162,165)/t77-,78-,79-,80-,81-,82+,88-,89-,90-,91-,92-,93-,94-,95-,96-,97-,98-,99-,100-,101-,102-,103-,104-,105-,106-,107-,108-,115-,116-,117-,118-/m0/s1

> <PUBCHEM_IUPAC_INCHIKEY>
WGWPRVFKDLAUQJ-MITYVQBRSA-N

> <PUBCHEM_XLOGP3_AA>
-12.1

> <PUBCHEM_EXACT_MASS>
3356.8220541

> <PUBCHEM_MOLECULAR_FORMULA>
C149H246N44O42S

> <PUBCHEM_MOLECULAR_WEIGHT>
3357.9

> <PUBCHEM_SMILES>
CC[C@H](C)[C@@H](C(=O)N[C@@H](CC1=CC=CC=C1)C(=O)N[C@@H]([C@@H](C)O)C(=O)N[C@@H](CC(=O)N)C(=O)N[C@@H](CO)C(=O)N[C@@H](CC2=CC=C(C=C2)O)C(=O)N[C@@H](CCCNC(=N)N)C(=O)N[C@@H](CCCCN)C(=O)N[C@@H](C(C)C)C(=O)N[C@@H](CC(C)C)C(=O)NCC(=O)N[C@@H](CCC(=O)N)C(=O)N[C@@H](CC(C)C)C(=O)N[C@@H](CO)C(=O)N[C@@H](C)C(=O)N[C@@H](CCCNC(=N)N)C(=O)N[C@@H](CCCCN)C(=O)N[C@@H](CC(C)C)C(=O)N[C@@H](CC(C)C)C(=O)N[C@@H](CCC(=O)N)C(=O)N[C@@H](CC(=O)O)C(=O)N[C@@H]([C@@H](C)CC)C(=O)N[C@@H](CCSC)C(=O)N[C@@H](CO)C(=O)N[C@@H](CCCNC(=N)N)C(=O)N)NC(=O)[C@H](C)NC(=O)[C@H](CC(=O)O)NC(=O)[C@H](C)NC(=O)[C@H](CC3=CC=C(C=C3)O)N

> <PUBCHEM_CONNECTIVITY_SMILES>
CCC(C)C(C(=O)NC(CC1=CC=CC=C1)C(=O)NC(C(C)O)C(=O)NC(CC(=O)N)C(=O)NC(CO)C(=O)NC(CC2=CC=C(C=C2)O)C(=O)NC(CCCNC(=N)N)C(=O)NC(CCCCN)C(=O)NC(C(C)C)C(=O)NC(CC(C)C)C(=O)NCC(=O)NC(CCC(=O)N)C(=O)NC(CC(C)C)C(=O)NC(CO)C(=O)NC(C)C(=O)NC(CCCNC(=N)N)C(=O)NC(CCCCN)C(=O)NC(CC(C)C)C(=O)NC(CC(C)C)C(=O)NC(CCC(=O)N)C(=O)NC(CC(=O)O)C(=O)NC(C(C)CC)C(=O)NC(CCSC)C(=O)NC(CO)C(=O)NC(CCCNC(=N)N)C(=O)N)NC(=O)C(C)NC(=O)C(CC(=O)O)NC(=O)C(C)NC(=O)C(CC3=CC=C(C=C3)O)N

> <PUBCHEM_CACTVS_TPSA>
1470

> <PUBCHEM_MONOISOTOPIC_WEIGHT>
3355.8186992

> <PUBCHEM_TOTAL_CHARGE>
0

> <PUBCHEM_HEAVY_ATOM_COUNT>
236

> <PUBCHEM_ATOM_DEF_STEREO_COUNT>
31

> <PUBCHEM_ATOM_UDEF_STEREO_COUNT>
0

> <PUBCHEM_BOND_DEF_STEREO_COUNT>
0

> <PUBCHEM_BOND_UDEF_STEREO_COUNT>
0

> <PUBCHEM_ISOTOPIC_ATOM_COUNT>
0

> <PUBCHEM_COMPONENT_COUNT>
1

> <PUBCHEM_CACTVS_TAUTO_COUNT>
-1

> <PUBCHEM_COORDINATE_TYPE>
1
5
255

> <PUBCHEM_BONDANNOTATIONS>
100  123  5
141  160  6
184  201  8
184  202  8
192  206  8
192  207  8
201  213  8
202  214  8
206  217  8
207  218  8
213  216  8
214  216  8
217  222  8
218  222  8
231  232  8
231  233  8
232  234  8
233  235  8
234  236  8
235  236  8
191  28  5
89  44  6
88  45  5
99  46  6
94  47  6
101  48  5
107  49  6
114  50  5
115  51  5
111  52  5
110  53  5
135  54  6
129  55  6
142  58  5
149  59  6
164  60  5
170  61  5
154  63  6
155  64  5
168  65  5
165  66  5
180  70  6
181  71  6
196  72  6
185  73  5
193  74  6
210  77  5
224  84  5
229  87  5

$$$$
