5338394
  -OEChem-11132518582D

 36 38  0     0  0  0  0  0  0999 V2000
    2.5369   -1.7673    0.0000 O   0  0  0  0  0  0  0  0  0  0  0  0
    6.0010    1.2327    0.0000 O   0  0  0  0  0  0  0  0  0  0  0  0
    7.7331    0.2327    0.0000 N   0  0  0  0  0  0  0  0  0  0  0  0
    6.8671   -0.2673    0.0000 N   0  0  0  0  0  0  0  0  0  0  0  0
   11.1972    0.2327    0.0000 C   0  0  0  0  0  0  0  0  0  0  0  0
   11.1972    1.2327    0.0000 C   0  0  0  0  0  0  0  0  0  0  0  0
   10.3312   -0.2673    0.0000 C   0  0  0  0  0  0  0  0  0  0  0  0
    9.4651    0.2327    0.0000 C   0  0  0  0  0  0  0  0  0  0  0  0
   10.3312    1.7327    0.0000 C   0  0  0  0  0  0  0  0  0  0  0  0
    9.4651    1.2327    0.0000 C   0  0  0  0  0  0  0  0  0  0  0  0
   12.0911   -0.3020    0.0000 C   0  0  0  0  0  0  0  0  0  0  0  0
   12.0911    1.7673    0.0000 C   0  0  0  0  0  0  0  0  0  0  0  0
   12.9972    0.2119    0.0000 C   0  0  0  0  0  0  0  0  0  0  0  0
   12.9972    1.2535    0.0000 C   0  0  0  0  0  0  0  0  0  0  0  0
    8.5991   -0.2673    0.0000 C   0  0  0  0  0  0  0  0  0  0  0  0
    5.1350   -0.2673    0.0000 C   0  0  0  0  0  0  0  0  0  0  0  0
    4.2690    0.2327    0.0000 C   0  0  0  0  0  0  0  0  0  0  0  0
    5.1350   -1.2673    0.0000 C   0  0  0  0  0  0  0  0  0  0  0  0
    6.0010    0.2327    0.0000 C   0  0  0  0  0  0  0  0  0  0  0  0
    3.4030   -0.2673    0.0000 C   0  0  0  0  0  0  0  0  0  0  0  0
    4.2690   -1.7673    0.0000 C   0  0  0  0  0  0  0  0  0  0  0  0
    3.4030   -1.2673    0.0000 C   0  0  0  0  0  0  0  0  0  0  0  0
   10.3312   -0.8873    0.0000 H   0  0  0  0  0  0  0  0  0  0  0  0
   10.3312    2.3527    0.0000 H   0  0  0  0  0  0  0  0  0  0  0  0
    8.9282    1.5427    0.0000 H   0  0  0  0  0  0  0  0  0  0  0  0
   12.0840   -0.9220    0.0000 H   0  0  0  0  0  0  0  0  0  0  0  0
   12.0840    2.3873    0.0000 H   0  0  0  0  0  0  0  0  0  0  0  0
   13.5329   -0.1002    0.0000 H   0  0  0  0  0  0  0  0  0  0  0  0
   13.5329    1.5656    0.0000 H   0  0  0  0  0  0  0  0  0  0  0  0
    8.5991   -0.8873    0.0000 H   0  0  0  0  0  0  0  0  0  0  0  0
    4.2690    0.8527    0.0000 H   0  0  0  0  0  0  0  0  0  0  0  0
    5.6720   -1.5773    0.0000 H   0  0  0  0  0  0  0  0  0  0  0  0
    2.8660    0.0427    0.0000 H   0  0  0  0  0  0  0  0  0  0  0  0
    4.2690   -2.3873    0.0000 H   0  0  0  0  0  0  0  0  0  0  0  0
    6.8671   -0.8873    0.0000 H   0  0  0  0  0  0  0  0  0  0  0  0
    2.0000   -1.4573    0.0000 H   0  0  0  0  0  0  0  0  0  0  0  0
  1 22  1  0  0  0  0
  1 36  1  0  0  0  0
  2 19  2  0  0  0  0
  3  4  1  0  0  0  0
  3 15  2  0  0  0  0
  4 19  1  0  0  0  0
  4 35  1  0  0  0  0
  5  6  1  0  0  0  0
  5  7  1  0  0  0  0
  5 11  2  0  0  0  0
  6  9  1  0  0  0  0
  6 12  2  0  0  0  0
  7  8  2  0  0  0  0
  7 23  1  0  0  0  0
  8 10  1  0  0  0  0
  8 15  1  0  0  0  0
  9 10  2  0  0  0  0
  9 24  1  0  0  0  0
 10 25  1  0  0  0  0
 11 13  1  0  0  0  0
 11 26  1  0  0  0  0
 12 14  1  0  0  0  0
 12 27  1  0  0  0  0
 13 14  2  0  0  0  0
 13 28  1  0  0  0  0
 14 29  1  0  0  0  0
 15 30  1  0  0  0  0
 16 17  2  0  0  0  0
 16 18  1  0  0  0  0
 16 19  1  0  0  0  0
 17 20  1  0  0  0  0
 17 31  1  0  0  0  0
 18 21  2  0  0  0  0
 18 32  1  0  0  0  0
 20 22  2  0  0  0  0
 20 33  1  0  0  0  0
 21 22  1  0  0  0  0
 21 34  1  0  0  0  0
M  END
> <PUBCHEM_COMPOUND_CID>
5338394

> <PUBCHEM_COMPOUND_CANONICALIZED>
1

> <PUBCHEM_CACTVS_COMPLEXITY>
402

> <PUBCHEM_CACTVS_HBOND_ACCEPTOR>
3

> <PUBCHEM_CACTVS_HBOND_DONOR>
2

> <PUBCHEM_CACTVS_ROTATABLE_BOND>
3

> <PUBCHEM_CACTVS_SUBSKEYS>
AAADccB7MAAAAAAAAAAAAAAAAAAAAAAAAAAwYMAAAAAAAADBVAAAHgAYCAAADATBmAQwBsBiAgCoAjFzEACSAAAkIAAaiAEmDNgIJrKClROAcQBkyBEImYeY3MDO4AACAAAQAADAAAQAACAAAAAAAAAAAA==

> <PUBCHEM_IUPAC_OPENEYE_NAME>
4-hydroxy-N-[(E)-2-naphthylmethyleneamino]benzamide

> <PUBCHEM_IUPAC_CAS_NAME>
4-hydroxy-N-[(E)-2-naphthalenylmethylideneamino]benzamide

> <PUBCHEM_IUPAC_NAME_MARKUP>
4-hydroxy-<I>N</I>-[(<I>E</I>)-naphthalen-2-ylmethylideneamino]benzamide

> <PUBCHEM_IUPAC_NAME>
4-hydroxy-N-[(E)-naphthalen-2-ylmethylideneamino]benzamide

> <PUBCHEM_IUPAC_SYSTEMATIC_NAME>
N-[(E)-naphthalen-2-ylmethylideneamino]-4-oxidanyl-benzamide

> <PUBCHEM_IUPAC_TRADITIONAL_NAME>
4-hydroxy-N-[(E)-2-naphthylmethyleneamino]benzamide

> <PUBCHEM_IUPAC_INCHI>
InChI=1S/C18H14N2O2/c21-17-9-7-15(8-10-17)18(22)20-19-12-13-5-6-14-3-1-2-4-16(14)11-13/h1-12,21H,(H,20,22)/b19-12+

> <PUBCHEM_IUPAC_INCHIKEY>
RNZIMBFHRXYRLL-XDHOZWIPSA-N

> <PUBCHEM_XLOGP3_AA>
3.7

> <PUBCHEM_EXACT_MASS>
290.105527694

> <PUBCHEM_MOLECULAR_FORMULA>
C18H14N2O2

> <PUBCHEM_MOLECULAR_WEIGHT>
290.3

> <PUBCHEM_SMILES>
C1=CC=C2C=C(C=CC2=C1)/C=N/NC(=O)C3=CC=C(C=C3)O

> <PUBCHEM_CONNECTIVITY_SMILES>
C1=CC=C2C=C(C=CC2=C1)C=NNC(=O)C3=CC=C(C=C3)O

> <PUBCHEM_CACTVS_TPSA>
61.7

> <PUBCHEM_MONOISOTOPIC_WEIGHT>
290.105527694

> <PUBCHEM_TOTAL_CHARGE>
0

> <PUBCHEM_HEAVY_ATOM_COUNT>
22

> <PUBCHEM_ATOM_DEF_STEREO_COUNT>
0

> <PUBCHEM_ATOM_UDEF_STEREO_COUNT>
0

> <PUBCHEM_BOND_DEF_STEREO_COUNT>
1

> <PUBCHEM_BOND_UDEF_STEREO_COUNT>
0

> <PUBCHEM_ISOTOPIC_ATOM_COUNT>
0

> <PUBCHEM_COMPONENT_COUNT>
1

> <PUBCHEM_CACTVS_TAUTO_COUNT>
-1

> <PUBCHEM_COORDINATE_TYPE>
1
5
255

> <PUBCHEM_BONDANNOTATIONS>
11  13  8
12  14  8
13  14  8
16  17  8
16  18  8
17  20  8
18  21  8
20  22  8
21  22  8
5  11  8
5  6  8
5  7  8
6  12  8
6  9  8
7  8  8
8  10  8
9  10  8

$$$$
