62707662
  -OEChem-11132518582D

130129  0     1  0  0  0  0  0999 V2000
   13.8626   -5.6550    0.0000 O   0  0  0  0  0  0  0  0  0  0  0  0
   14.3312    1.3450    0.0000 O   0  0  0  0  0  0  0  0  0  0  0  0
   11.5991    0.8450    0.0000 O   0  0  0  0  0  0  0  0  0  0  0  0
   11.1305   -3.1550    0.0000 O   0  0  0  0  0  0  0  0  0  0  0  0
   11.5991    3.8450    0.0000 O   0  0  0  0  0  0  0  0  0  0  0  0
    8.8671    1.3450    0.0000 O   0  0  0  0  0  0  0  0  0  0  0  0
    6.1350    0.8450    0.0000 O   0  0  0  0  0  0  0  0  0  0  0  0
   10.2645   -2.6550    0.0000 O   0  0  0  0  0  0  0  0  0  0  0  0
    6.1350    3.8450    0.0000 O   0  0  0  0  0  0  0  0  0  0  0  0
    8.0010    5.8450    0.0000 O   0  0  0  0  0  0  0  0  0  0  0  0
    9.7331    5.8450    0.0000 O   0  0  0  0  0  0  0  0  0  0  0  0
    2.5369    2.8450    0.0000 O   0  0  0  0  0  0  0  0  0  0  0  0
    3.4030    1.3450    0.0000 O   0  0  0  0  0  0  0  0  0  0  0  0
    4.2690    5.8450    0.0000 O   0  0  0  0  0  0  0  0  0  0  0  0
   16.0632    2.3450    0.0000 N   0  0  0  0  0  0  0  0  0  0  0  0
   12.1305   -4.6550    0.0000 N   0  0  0  0  0  0  0  0  0  0  0  0
   13.3312    2.8450    0.0000 N   0  0  0  0  0  0  0  0  0  0  0  0
    9.3985   -4.1550    0.0000 N   0  0  0  0  0  0  0  0  0  0  0  0
   10.5991    2.3450    0.0000 N   0  0  0  0  0  0  0  0  0  0  0  0
    7.8671    2.8450    0.0000 N   0  0  0  0  0  0  0  0  0  0  0  0
    5.1350    2.3450    0.0000 N   0  0  0  0  0  0  0  0  0  0  0  0
   16.4606   -3.1550    0.0000 N   0  0  0  0  0  0  0  0  0  0  0  0
   16.9292    6.8450    0.0000 N   0  0  0  0  0  0  0  0  0  0  0  0
    2.5369    5.8450    0.0000 N   0  0  0  0  0  0  0  0  0  0  0  0
   12.9965   -4.1550    0.0000 C   0  0  1  0  0  0  0  0  0  0  0  0
   15.1972    2.8450    0.0000 C   0  0  1  0  0  0  0  0  0  0  0  0
   12.9965   -3.1550    0.0000 C   0  0  0  0  0  0  0  0  0  0  0  0
   15.1972    3.8450    0.0000 C   0  0  0  0  0  0  0  0  0  0  0  0
   10.2645   -4.6550    0.0000 C   0  0  1  0  0  0  0  0  0  0  0  0
   10.2645   -5.6550    0.0000 C   0  0  0  0  0  0  0  0  0  0  0  0
   13.8626   -2.6550    0.0000 C   0  0  0  0  0  0  0  0  0  0  0  0
   13.8626   -4.6550    0.0000 C   0  0  0  0  0  0  0  0  0  0  0  0
   16.0632    4.3450    0.0000 C   0  0  0  0  0  0  0  0  0  0  0  0
    9.3985   -6.1550    0.0000 C   0  0  0  0  0  0  0  0  0  0  0  0
   12.4651    2.3450    0.0000 C   0  0  1  0  0  0  0  0  0  0  0  0
   14.3312    2.3450    0.0000 C   0  0  0  0  0  0  0  0  0  0  0  0
   11.1305   -4.1550    0.0000 C   0  0  0  0  0  0  0  0  0  0  0  0
   14.7286   -3.1550    0.0000 C   0  0  0  0  0  0  0  0  0  0  0  0
   16.0632    5.3450    0.0000 C   0  0  0  0  0  0  0  0  0  0  0  0
   12.4651    1.3450    0.0000 C   0  0  1  0  0  0  0  0  0  0  0  0
    9.7331    2.8450    0.0000 C   0  0  1  0  0  0  0  0  0  0  0  0
   11.5991    2.8450    0.0000 C   0  0  0  0  0  0  0  0  0  0  0  0
    9.3985   -7.1550    0.0000 C   0  0  0  0  0  0  0  0  0  0  0  0
    8.5324   -5.6550    0.0000 C   0  0  0  0  0  0  0  0  0  0  0  0
    9.7331    3.8450    0.0000 C   0  0  0  0  0  0  0  0  0  0  0  0
   15.5946   -2.6550    0.0000 C   0  0  0  0  0  0  0  0  0  0  0  0
   16.9292    5.8450    0.0000 C   0  0  0  0  0  0  0  0  0  0  0  0
    7.0010    2.3450    0.0000 C   0  0  1  0  0  0  0  0  0  0  0  0
    8.8671    2.3450    0.0000 C   0  0  0  0  0  0  0  0  0  0  0  0
   13.3312    0.8450    0.0000 C   0  0  0  0  0  0  0  0  0  0  0  0
    7.0010    1.3450    0.0000 C   0  0  1  0  0  0  0  0  0  0  0  0
    8.8671    4.3450    0.0000 C   0  0  0  0  0  0  0  0  0  0  0  0
    9.3985   -3.1550    0.0000 C   0  0  0  0  0  0  0  0  0  0  0  0
    6.1350    2.8450    0.0000 C   0  0  0  0  0  0  0  0  0  0  0  0
    4.2690    2.8450    0.0000 C   0  0  1  0  0  0  0  0  0  0  0  0
    7.8671    0.8450    0.0000 C   0  0  0  0  0  0  0  0  0  0  0  0
    4.2690    3.8450    0.0000 C   0  0  0  0  0  0  0  0  0  0  0  0
    8.5324   -2.6550    0.0000 C   0  0  0  0  0  0  0  0  0  0  0  0
    8.8671    5.3450    0.0000 C   0  0  0  0  0  0  0  0  0  0  0  0
    3.4030    4.3450    0.0000 C   0  0  0  0  0  0  0  0  0  0  0  0
    3.4030    2.3450    0.0000 C   0  0  0  0  0  0  0  0  0  0  0  0
    3.4030    5.3450    0.0000 C   0  0  0  0  0  0  0  0  0  0  0  0
   12.4596   -3.8450    0.0000 H   0  0  0  0  0  0  0  0  0  0  0  0
   15.7341    3.1550    0.0000 H   0  0  0  0  0  0  0  0  0  0  0  0
   12.7845   -2.5724    0.0000 H   0  0  0  0  0  0  0  0  0  0  0  0
   12.3860   -3.2627    0.0000 H   0  0  0  0  0  0  0  0  0  0  0  0
   14.9851    4.4276    0.0000 H   0  0  0  0  0  0  0  0  0  0  0  0
   14.5866    3.7373    0.0000 H   0  0  0  0  0  0  0  0  0  0  0  0
   10.2645   -4.0350    0.0000 H   0  0  0  0  0  0  0  0  0  0  0  0
   10.4765   -6.2376    0.0000 H   0  0  0  0  0  0  0  0  0  0  0  0
   10.8751   -5.5473    0.0000 H   0  0  0  0  0  0  0  0  0  0  0  0
   14.2611   -2.1800    0.0000 H   0  0  0  0  0  0  0  0  0  0  0  0
   13.4640   -2.1800    0.0000 H   0  0  0  0  0  0  0  0  0  0  0  0
   16.2753    3.7624    0.0000 H   0  0  0  0  0  0  0  0  0  0  0  0
   16.6738    4.4527    0.0000 H   0  0  0  0  0  0  0  0  0  0  0  0
   16.6001    2.0350    0.0000 H   0  0  0  0  0  0  0  0  0  0  0  0
   12.4651    2.9650    0.0000 H   0  0  0  0  0  0  0  0  0  0  0  0
    9.9354   -6.4650    0.0000 H   0  0  0  0  0  0  0  0  0  0  0  0
   12.6675   -4.9650    0.0000 H   0  0  0  0  0  0  0  0  0  0  0  0
   13.8681    3.1550    0.0000 H   0  0  0  0  0  0  0  0  0  0  0  0
   14.3301   -3.6300    0.0000 H   0  0  0  0  0  0  0  0  0  0  0  0
   15.1271   -3.6300    0.0000 H   0  0  0  0  0  0  0  0  0  0  0  0
   15.8512    5.9276    0.0000 H   0  0  0  0  0  0  0  0  0  0  0  0
   15.4526    5.2373    0.0000 H   0  0  0  0  0  0  0  0  0  0  0  0
   11.9282    1.6550    0.0000 H   0  0  0  0  0  0  0  0  0  0  0  0
   10.2700    3.1550    0.0000 H   0  0  0  0  0  0  0  0  0  0  0  0
    9.9354   -4.4650    0.0000 H   0  0  0  0  0  0  0  0  0  0  0  0
   11.1360    2.0350    0.0000 H   0  0  0  0  0  0  0  0  0  0  0  0
    8.7785   -7.1550    0.0000 H   0  0  0  0  0  0  0  0  0  0  0  0
    9.3985   -7.7750    0.0000 H   0  0  0  0  0  0  0  0  0  0  0  0
   10.0185   -7.1550    0.0000 H   0  0  0  0  0  0  0  0  0  0  0  0
    8.8424   -5.1181    0.0000 H   0  0  0  0  0  0  0  0  0  0  0  0
    7.9955   -5.3450    0.0000 H   0  0  0  0  0  0  0  0  0  0  0  0
    8.2224   -6.1919    0.0000 H   0  0  0  0  0  0  0  0  0  0  0  0
   10.3437    3.7373    0.0000 H   0  0  0  0  0  0  0  0  0  0  0  0
    9.9451    4.4276    0.0000 H   0  0  0  0  0  0  0  0  0  0  0  0
   15.9931   -2.1800    0.0000 H   0  0  0  0  0  0  0  0  0  0  0  0
   15.1961   -2.1800    0.0000 H   0  0  0  0  0  0  0  0  0  0  0  0
   17.1413    5.2624    0.0000 H   0  0  0  0  0  0  0  0  0  0  0  0
   17.5398    5.9527    0.0000 H   0  0  0  0  0  0  0  0  0  0  0  0
    7.5380    2.0350    0.0000 H   0  0  0  0  0  0  0  0  0  0  0  0
   13.0212    0.3081    0.0000 H   0  0  0  0  0  0  0  0  0  0  0  0
   13.8681    0.5350    0.0000 H   0  0  0  0  0  0  0  0  0  0  0  0
   13.6412    1.3819    0.0000 H   0  0  0  0  0  0  0  0  0  0  0  0
    8.4040    3.1550    0.0000 H   0  0  0  0  0  0  0  0  0  0  0  0
    6.4641    1.6550    0.0000 H   0  0  0  0  0  0  0  0  0  0  0  0
    8.2565    4.4527    0.0000 H   0  0  0  0  0  0  0  0  0  0  0  0
    8.6550    3.7624    0.0000 H   0  0  0  0  0  0  0  0  0  0  0  0
   11.5991    0.2250    0.0000 H   0  0  0  0  0  0  0  0  0  0  0  0
    4.8059    3.1550    0.0000 H   0  0  0  0  0  0  0  0  0  0  0  0
    5.6720    2.0350    0.0000 H   0  0  0  0  0  0  0  0  0  0  0  0
   16.9976   -2.8450    0.0000 H   0  0  0  0  0  0  0  0  0  0  0  0
   16.4606   -3.7750    0.0000 H   0  0  0  0  0  0  0  0  0  0  0  0
    7.5571    0.3081    0.0000 H   0  0  0  0  0  0  0  0  0  0  0  0
    8.4040    0.5350    0.0000 H   0  0  0  0  0  0  0  0  0  0  0  0
    8.1771    1.3819    0.0000 H   0  0  0  0  0  0  0  0  0  0  0  0
   17.4662    7.1550    0.0000 H   0  0  0  0  0  0  0  0  0  0  0  0
   16.3923    7.1550    0.0000 H   0  0  0  0  0  0  0  0  0  0  0  0
    4.8796    3.7373    0.0000 H   0  0  0  0  0  0  0  0  0  0  0  0
    4.4810    4.4276    0.0000 H   0  0  0  0  0  0  0  0  0  0  0  0
    8.8424   -2.1181    0.0000 H   0  0  0  0  0  0  0  0  0  0  0  0
    7.9955   -2.3450    0.0000 H   0  0  0  0  0  0  0  0  0  0  0  0
    8.2224   -3.1919    0.0000 H   0  0  0  0  0  0  0  0  0  0  0  0
    6.1350    0.2250    0.0000 H   0  0  0  0  0  0  0  0  0  0  0  0
    2.7924    4.4527    0.0000 H   0  0  0  0  0  0  0  0  0  0  0  0
    3.1909    3.7624    0.0000 H   0  0  0  0  0  0  0  0  0  0  0  0
    8.0010    6.4650    0.0000 H   0  0  0  0  0  0  0  0  0  0  0  0
    2.0000    2.5350    0.0000 H   0  0  0  0  0  0  0  0  0  0  0  0
    2.5369    6.4650    0.0000 H   0  0  0  0  0  0  0  0  0  0  0  0
    2.0000    5.5350    0.0000 H   0  0  0  0  0  0  0  0  0  0  0  0
  1 32  2  0  0  0  0
  2 36  2  0  0  0  0
 40  3  1  1  0  0  0
  3109  1  0  0  0  0
  4 37  2  0  0  0  0
  5 42  2  0  0  0  0
  6 49  2  0  0  0  0
 51  7  1  1  0  0  0
  7124  1  0  0  0  0
  8 53  2  0  0  0  0
  9 54  2  0  0  0  0
 10 59  1  0  0  0  0
 10127  1  0  0  0  0
 11 59  2  0  0  0  0
 12 61  1  0  0  0  0
 12128  1  0  0  0  0
 13 61  2  0  0  0  0
 14 62  2  0  0  0  0
 26 15  1  6  0  0  0
 15 32  1  0  0  0  0
 15 76  1  0  0  0  0
 25 16  1  1  0  0  0
 16 37  1  0  0  0  0
 16 79  1  0  0  0  0
 35 17  1  1  0  0  0
 17 36  1  0  0  0  0
 17 80  1  0  0  0  0
 29 18  1  6  0  0  0
 18 53  1  0  0  0  0
 18 87  1  0  0  0  0
 41 19  1  6  0  0  0
 19 42  1  0  0  0  0
 19 88  1  0  0  0  0
 48 20  1  1  0  0  0
 20 49  1  0  0  0  0
 20105  1  0  0  0  0
 21 54  1  0  0  0  0
 55 21  1  6  0  0  0
 21111  1  0  0  0  0
 22 46  1  0  0  0  0
 22112  1  0  0  0  0
 22113  1  0  0  0  0
 23 47  1  0  0  0  0
 23117  1  0  0  0  0
 23118  1  0  0  0  0
 24 62  1  0  0  0  0
 24129  1  0  0  0  0
 24130  1  0  0  0  0
 25 27  1  0  0  0  0
 25 32  1  0  0  0  0
 25 63  1  0  0  0  0
 26 28  1  0  0  0  0
 26 36  1  0  0  0  0
 26 64  1  0  0  0  0
 27 31  1  0  0  0  0
 27 65  1  0  0  0  0
 27 66  1  0  0  0  0
 28 33  1  0  0  0  0
 28 67  1  0  0  0  0
 28 68  1  0  0  0  0
 29 30  1  0  0  0  0
 29 37  1  0  0  0  0
 29 69  1  0  0  0  0
 30 34  1  0  0  0  0
 30 70  1  0  0  0  0
 30 71  1  0  0  0  0
 31 38  1  0  0  0  0
 31 72  1  0  0  0  0
 31 73  1  0  0  0  0
 33 39  1  0  0  0  0
 33 74  1  0  0  0  0
 33 75  1  0  0  0  0
 34 43  1  0  0  0  0
 34 44  1  0  0  0  0
 34 78  1  0  0  0  0
 35 40  1  0  0  0  0
 35 42  1  0  0  0  0
 35 77  1  0  0  0  0
 38 46  1  0  0  0  0
 38 81  1  0  0  0  0
 38 82  1  0  0  0  0
 39 47  1  0  0  0  0
 39 83  1  0  0  0  0
 39 84  1  0  0  0  0
 40 50  1  0  0  0  0
 40 85  1  0  0  0  0
 41 45  1  0  0  0  0
 41 49  1  0  0  0  0
 41 86  1  0  0  0  0
 43 89  1  0  0  0  0
 43 90  1  0  0  0  0
 43 91  1  0  0  0  0
 44 92  1  0  0  0  0
 44 93  1  0  0  0  0
 44 94  1  0  0  0  0
 45 52  1  0  0  0  0
 45 95  1  0  0  0  0
 45 96  1  0  0  0  0
 46 97  1  0  0  0  0
 46 98  1  0  0  0  0
 47 99  1  0  0  0  0
 47100  1  0  0  0  0
 48 51  1  0  0  0  0
 48 54  1  0  0  0  0
 48101  1  0  0  0  0
 50102  1  0  0  0  0
 50103  1  0  0  0  0
 50104  1  0  0  0  0
 51 56  1  0  0  0  0
 51106  1  0  0  0  0
 52 59  1  0  0  0  0
 52107  1  0  0  0  0
 52108  1  0  0  0  0
 53 58  1  0  0  0  0
 55 57  1  0  0  0  0
 55 61  1  0  0  0  0
 55110  1  0  0  0  0
 56114  1  0  0  0  0
 56115  1  0  0  0  0
 56116  1  0  0  0  0
 57 60  1  0  0  0  0
 57119  1  0  0  0  0
 57120  1  0  0  0  0
 58121  1  0  0  0  0
 58122  1  0  0  0  0
 58123  1  0  0  0  0
 60 62  1  0  0  0  0
 60125  1  0  0  0  0
 60126  1  0  0  0  0
M  END
> <PUBCHEM_COMPOUND_CID>
62707662

> <PUBCHEM_COMPOUND_CANONICALIZED>
1

> <PUBCHEM_CACTVS_COMPLEXITY>
1530

> <PUBCHEM_CACTVS_HBOND_ACCEPTOR>
16

> <PUBCHEM_CACTVS_HBOND_DONOR>
14

> <PUBCHEM_CACTVS_ROTATABLE_BOND>
32

> <PUBCHEM_CACTVS_SUBSKEYS>
AAADcfB//AAAAAAAAAAAAAAAAAAAAAAAAAAAAAAAAAAAAAAAAAAAHgAQCAAADTzhgAYCCALAAgAIAAGQGAAAAAAAAAAAAIGIAAACUBYAgCAUQAAGNgCQAAG8HwIMAAAAAAAAAAAAAAAAAAAAAAAAAAAAAA==

> <PUBCHEM_IUPAC_OPENEYE_NAME>
(2S)-2-[[(2S,3R)-2-[[(2S)-2-[[(2S,3R)-2-[[(2S)-2-[[(2S)-2-[[(2S)-2-acetamido-4-methyl-pentanoyl]amino]-6-amino-hexanoyl]amino]-6-amino-hexanoyl]amino]-3-hydroxy-butanoyl]amino]-4-carboxy-butanoyl]amino]-3-hydroxy-butanoyl]amino]-5-amino-5-oxo-pentanoic acid

> <PUBCHEM_IUPAC_CAS_NAME>
(2S)-2-[[(2S,3R)-2-[[(2S)-2-[[(2S,3R)-2-[[(2S)-2-[[(2S)-2-[[(2S)-2-acetamido-4-methyl-1-oxopentyl]amino]-6-amino-1-oxohexyl]amino]-6-amino-1-oxohexyl]amino]-3-hydroxy-1-oxobutyl]amino]-4-carboxy-1-oxobutyl]amino]-3-hydroxy-1-oxobutyl]amino]-5-amino-5-oxopentanoic acid

> <PUBCHEM_IUPAC_NAME_MARKUP>
(2<I>S</I>)-2-[[(2<I>S</I>,3<I>R</I>)-2-[[(2<I>S</I>)-2-[[(2<I>S</I>,3<I>R</I>)-2-[[(2<I>S</I>)-2-[[(2<I>S</I>)-2-[[(2<I>S</I>)-2-acetamido-4-methylpentanoyl]amino]-6-aminohexanoyl]amino]-6-aminohexanoyl]amino]-3-hydroxybutanoyl]amino]-4-carboxybutanoyl]amino]-3-hydroxybutanoyl]amino]-5-amino-5-oxopentanoic acid

> <PUBCHEM_IUPAC_NAME>
(2S)-2-[[(2S,3R)-2-[[(2S)-2-[[(2S,3R)-2-[[(2S)-2-[[(2S)-2-[[(2S)-2-acetamido-4-methylpentanoyl]amino]-6-aminohexanoyl]amino]-6-aminohexanoyl]amino]-3-hydroxybutanoyl]amino]-4-carboxybutanoyl]amino]-3-hydroxybutanoyl]amino]-5-amino-5-oxopentanoic acid

> <PUBCHEM_IUPAC_SYSTEMATIC_NAME>
(2S)-2-[[(2S,3R)-2-[[(2S)-2-[[(2S,3R)-2-[[(2S)-2-[[(2S)-2-[[(2S)-2-acetamido-4-methyl-pentanoyl]amino]-6-azanyl-hexanoyl]amino]-6-azanyl-hexanoyl]amino]-3-oxidanyl-butanoyl]amino]-5-oxidanyl-5-oxidanylidene-pentanoyl]amino]-3-oxidanyl-butanoyl]amino]-5-azanyl-5-oxidanylidene-pentanoic acid

> <PUBCHEM_IUPAC_TRADITIONAL_NAME>
(2S)-2-[[(2S,3R)-2-[[(2S)-2-[[(2S,3R)-2-[[(2S)-2-[[(2S)-2-[[(2S)-2-acetamido-4-methyl-pentanoyl]amino]-6-amino-hexanoyl]amino]-6-amino-hexanoyl]amino]-3-hydroxy-butanoyl]amino]-4-carboxy-butanoyl]amino]-3-hydroxy-butanoyl]amino]-5-amino-5-keto-valeric acid

> <PUBCHEM_IUPAC_INCHI>
InChI=1S/C38H68N10O14/c1-19(2)18-27(42-22(5)51)35(58)44-23(10-6-8-16-39)32(55)43-24(11-7-9-17-40)33(56)47-30(20(3)49)36(59)45-25(13-15-29(53)54)34(57)48-31(21(4)50)37(60)46-26(38(61)62)12-14-28(41)52/h19-21,23-27,30-31,49-50H,6-18,39-40H2,1-5H3,(H2,41,52)(H,42,51)(H,43,55)(H,44,58)(H,45,59)(H,46,60)(H,47,56)(H,48,57)(H,53,54)(H,61,62)/t20-,21-,23+,24+,25+,26+,27+,30+,31+/m1/s1

> <PUBCHEM_IUPAC_INCHIKEY>
ADKDNDYYIZUVCZ-ZQNQAVPYSA-N

> <PUBCHEM_XLOGP3_AA>
-8.6

> <PUBCHEM_EXACT_MASS>
888.49164688

> <PUBCHEM_MOLECULAR_FORMULA>
C38H68N10O14

> <PUBCHEM_MOLECULAR_WEIGHT>
889.0

> <PUBCHEM_SMILES>
C[C@H]([C@@H](C(=O)N[C@@H](CCC(=O)O)C(=O)N[C@@H]([C@@H](C)O)C(=O)N[C@@H](CCC(=O)N)C(=O)O)NC(=O)[C@H](CCCCN)NC(=O)[C@H](CCCCN)NC(=O)[C@H](CC(C)C)NC(=O)C)O

> <PUBCHEM_CONNECTIVITY_SMILES>
CC(C)CC(C(=O)NC(CCCCN)C(=O)NC(CCCCN)C(=O)NC(C(C)O)C(=O)NC(CCC(=O)O)C(=O)NC(C(C)O)C(=O)NC(CCC(=O)N)C(=O)O)NC(=O)C

> <PUBCHEM_CACTVS_TPSA>
414

> <PUBCHEM_MONOISOTOPIC_WEIGHT>
888.49164688

> <PUBCHEM_TOTAL_CHARGE>
0

> <PUBCHEM_HEAVY_ATOM_COUNT>
62

> <PUBCHEM_ATOM_DEF_STEREO_COUNT>
9

> <PUBCHEM_ATOM_UDEF_STEREO_COUNT>
0

> <PUBCHEM_BOND_DEF_STEREO_COUNT>
0

> <PUBCHEM_BOND_UDEF_STEREO_COUNT>
0

> <PUBCHEM_ISOTOPIC_ATOM_COUNT>
0

> <PUBCHEM_COMPONENT_COUNT>
1

> <PUBCHEM_CACTVS_TAUTO_COUNT>
-1

> <PUBCHEM_COORDINATE_TYPE>
1
5
255

> <PUBCHEM_BONDANNOTATIONS>
26  15  6
25  16  5
35  17  5
29  18  6
41  19  6
48  20  5
55  21  6
40  3  5
51  7  5

$$$$
